This is pdfTeX, Version 3.14159265-2.6-1.40.20 (TeX Live 2019/Debian) (preloaded format=pdflatex 2020.11.9)  26 FEB 2021 14:26
entering extended mode
 restricted \write18 enabled.
 %&-line parsing enabled.
**manual_SPECFEM3D_GLOBE.tex
(./manual_SPECFEM3D_GLOBE.tex
LaTeX2e <2020-02-02> patch level 2
L3 programming layer <2020-02-14>
(/usr/share/texlive/texmf-dist/tex/latex/base/book.cls
Document Class: book 2019/12/20 v1.4l Standard LaTeX document class
(/usr/share/texlive/texmf-dist/tex/latex/base/bk10.clo
File: bk10.clo 2019/12/20 v1.4l Standard LaTeX file (size option)
)
\c@part=\count167
\c@chapter=\count168
\c@section=\count169
\c@subsection=\count170
\c@subsubsection=\count171
\c@paragraph=\count172
\c@subparagraph=\count173
\c@figure=\count174
\c@table=\count175
\abovecaptionskip=\skip47
\belowcaptionskip=\skip48
\bibindent=\dimen134
)
(/usr/share/texlive/texmf-dist/tex/latex/base/fontenc.sty
Package: fontenc 2020/02/11 v2.0o Standard LaTeX package
)
(/usr/share/texlive/texmf-dist/tex/latex/base/inputenc.sty
Package: inputenc 2018/08/11 v1.3c Input encoding file
\inpenc@prehook=\toks14
\inpenc@posthook=\toks15

(/usr/share/texlive/texmf-dist/tex/latex/base/latin1.def
File: latin1.def 2018/08/11 v1.3c Input encoding file
))
(/usr/share/texlive/texmf-dist/tex/latex/geometry/geometry.sty
Package: geometry 2020/01/02 v5.9 Page Geometry

(/usr/share/texlive/texmf-dist/tex/latex/graphics/keyval.sty
Package: keyval 2014/10/28 v1.15 key=value parser (DPC)
\KV@toks@=\toks16
)
(/usr/share/texlive/texmf-dist/tex/generic/iftex/ifvtex.sty
Package: ifvtex 2019/10/25 v1.7 ifvtex legacy package. Use iftex instead.

(/usr/share/texlive/texmf-dist/tex/generic/iftex/iftex.sty
Package: iftex 2019/11/07 v1.0c TeX engine tests
))
\Gm@cnth=\count176
\Gm@cntv=\count177
\c@Gm@tempcnt=\count178
\Gm@bindingoffset=\dimen135
\Gm@wd@mp=\dimen136
\Gm@odd@mp=\dimen137
\Gm@even@mp=\dimen138
\Gm@layoutwidth=\dimen139
\Gm@layoutheight=\dimen140
\Gm@layouthoffset=\dimen141
\Gm@layoutvoffset=\dimen142
\Gm@dimlist=\toks17
)
(/usr/share/texlive/texmf-dist/tex/latex/tools/longtable.sty
Package: longtable 2020/01/07 v4.13 Multi-page Table package (DPC)
\LTleft=\skip49
\LTright=\skip50
\LTpre=\skip51
\LTpost=\skip52
\LTchunksize=\count179
\LTcapwidth=\dimen143
\LT@head=\box45
\LT@firsthead=\box46
\LT@foot=\box47
\LT@lastfoot=\box48
\LT@cols=\count180
\LT@rows=\count181
\c@LT@tables=\count182
\c@LT@chunks=\count183
\LT@p@ftn=\toks18
)
(/usr/share/texlive/texmf-dist/tex/latex/tools/varioref.sty
Package: varioref 2020/01/23 v1.6c package for extended references (FMi)
\c@vrcnt=\count184
)
(/usr/share/texlive/texmf-dist/tex/latex/float/float.sty
Package: float 2001/11/08 v1.3d Float enhancements (AL)
\c@float@type=\count185
\float@exts=\toks19
\float@box=\box49
\@float@everytoks=\toks20
\@floatcapt=\box50
)
(/usr/share/texlive/texmf-dist/tex/latex/base/textcomp.sty
Package: textcomp 2020/02/02 v2.0n Standard LaTeX package
)
(/usr/share/texlive/texmf-dist/tex/latex/amsmath/amsmath.sty
Package: amsmath 2020/01/20 v2.17e AMS math features
\@mathmargin=\skip53

For additional information on amsmath, use the `?' option.
(/usr/share/texlive/texmf-dist/tex/latex/amsmath/amstext.sty
Package: amstext 2000/06/29 v2.01 AMS text

(/usr/share/texlive/texmf-dist/tex/latex/amsmath/amsgen.sty
File: amsgen.sty 1999/11/30 v2.0 generic functions
\@emptytoks=\toks21
\ex@=\dimen144
))
(/usr/share/texlive/texmf-dist/tex/latex/amsmath/amsbsy.sty
Package: amsbsy 1999/11/29 v1.2d Bold Symbols
\pmbraise@=\dimen145
)
(/usr/share/texlive/texmf-dist/tex/latex/amsmath/amsopn.sty
Package: amsopn 2016/03/08 v2.02 operator names
)
\inf@bad=\count186
LaTeX Info: Redefining \frac on input line 227.
\uproot@=\count187
\leftroot@=\count188
LaTeX Info: Redefining \overline on input line 389.
\classnum@=\count189
\DOTSCASE@=\count190
LaTeX Info: Redefining \ldots on input line 486.
LaTeX Info: Redefining \dots on input line 489.
LaTeX Info: Redefining \cdots on input line 610.
\Mathstrutbox@=\box51
\strutbox@=\box52
\big@size=\dimen146
LaTeX Font Info:    Redeclaring font encoding OML on input line 733.
LaTeX Font Info:    Redeclaring font encoding OMS on input line 734.
\macc@depth=\count191
\c@MaxMatrixCols=\count192
\dotsspace@=\muskip16
\c@parentequation=\count193
\dspbrk@lvl=\count194
\tag@help=\toks22
\row@=\count195
\column@=\count196
\maxfields@=\count197
\andhelp@=\toks23
\eqnshift@=\dimen147
\alignsep@=\dimen148
\tagshift@=\dimen149
\tagwidth@=\dimen150
\totwidth@=\dimen151
\lineht@=\dimen152
\@envbody=\toks24
\multlinegap=\skip54
\multlinetaggap=\skip55
\mathdisplay@stack=\toks25
LaTeX Info: Redefining \[ on input line 2859.
LaTeX Info: Redefining \] on input line 2860.
)
(/usr/share/texlive/texmf-dist/tex/latex/graphics/graphicx.sty
Package: graphicx 2019/11/30 v1.2a Enhanced LaTeX Graphics (DPC,SPQR)

(/usr/share/texlive/texmf-dist/tex/latex/graphics/graphics.sty
Package: graphics 2019/11/30 v1.4a Standard LaTeX Graphics (DPC,SPQR)

(/usr/share/texlive/texmf-dist/tex/latex/graphics/trig.sty
Package: trig 2016/01/03 v1.10 sin cos tan (DPC)
)
(/usr/share/texlive/texmf-dist/tex/latex/graphics-cfg/graphics.cfg
File: graphics.cfg 2016/06/04 v1.11 sample graphics configuration
)
Package graphics Info: Driver file: pdftex.def on input line 105.

(/usr/share/texlive/texmf-dist/tex/latex/graphics-def/pdftex.def
File: pdftex.def 2018/01/08 v1.0l Graphics/color driver for pdftex
))
\Gin@req@height=\dimen153
\Gin@req@width=\dimen154
)
(/usr/share/texlive/texmf-dist/tex/latex/epstopdf-pkg/epstopdf.sty
Package: epstopdf 2020-01-24 v2.11 Conversion with epstopdf on the fly (HO)

(/usr/share/texlive/texmf-dist/tex/generic/infwarerr/infwarerr.sty
Package: infwarerr 2019/12/03 v1.5 Providing info/warning/error messages (HO)
)
(/usr/share/texlive/texmf-dist/tex/latex/grfext/grfext.sty
Package: grfext 2019/12/03 v1.3 Manage graphics extensions (HO)

(/usr/share/texlive/texmf-dist/tex/generic/kvdefinekeys/kvdefinekeys.sty
Package: kvdefinekeys 2019-12-19 v1.6 Define keys (HO)
))
(/usr/share/texlive/texmf-dist/tex/latex/kvoptions/kvoptions.sty
Package: kvoptions 2019/11/29 v3.13 Key value format for package options (HO)

(/usr/share/texlive/texmf-dist/tex/generic/ltxcmds/ltxcmds.sty
Package: ltxcmds 2019/12/15 v1.24 LaTeX kernel commands for general use (HO)
)
(/usr/share/texlive/texmf-dist/tex/generic/kvsetkeys/kvsetkeys.sty
Package: kvsetkeys 2019/12/15 v1.18 Key value parser (HO)
))
(/usr/share/texlive/texmf-dist/tex/latex/pdftexcmds/pdftexcmds.sty
Package: pdftexcmds 2019/11/24 v0.31 Utility functions of pdfTeX for LuaTeX (HO
)
Package pdftexcmds Info: \pdf@primitive is available.
Package pdftexcmds Info: \pdf@ifprimitive is available.
Package pdftexcmds Info: \pdfdraftmode found.
)
(/usr/share/texlive/texmf-dist/tex/latex/epstopdf-pkg/epstopdf-base.sty
Package: epstopdf-base 2020-01-24 v2.11 Base part for package epstopdf
Package epstopdf-base Info: Redefining graphics rule for `.eps' on input line 4
85.
Package grfext Info: Graphics extension search list:
(grfext)             [.pdf,.png,.jpg,.mps,.jpeg,.jbig2,.jb2,.PDF,.PNG,.JPG,.JPE
G,.JBIG2,.JB2,.eps]
(grfext)             \AppendGraphicsExtensions on input line 504.

(/usr/share/texlive/texmf-dist/tex/latex/latexconfig/epstopdf-sys.cfg
File: epstopdf-sys.cfg 2010/07/13 v1.3 Configuration of (r)epstopdf for TeX Liv
e
)))
(/usr/share/texlive/texmf-dist/tex/latex/amsfonts/amssymb.sty
Package: amssymb 2013/01/14 v3.01 AMS font symbols

(/usr/share/texlive/texmf-dist/tex/latex/amsfonts/amsfonts.sty
Package: amsfonts 2013/01/14 v3.01 Basic AMSFonts support
\symAMSa=\mathgroup4
\symAMSb=\mathgroup5
LaTeX Font Info:    Redeclaring math symbol \hbar on input line 98.
LaTeX Font Info:    Overwriting math alphabet `\mathfrak' in version `bold'
(Font)                  U/euf/m/n --> U/euf/b/n on input line 106.
))
(/usr/share/texlive/texmf-dist/tex/latex/url/url.sty
\Urlmuskip=\muskip17
Package: url 2013/09/16  ver 3.4  Verb mode for urls, etc.
)
(/usr/share/texlive/texmf-dist/tex/latex/natbib/natbib.sty
Package: natbib 2010/09/13 8.31b (PWD, AO)
\bibhang=\skip56
\bibsep=\skip57
LaTeX Info: Redefining \cite on input line 694.
\c@NAT@ctr=\count198
)
(/usr/share/texlive/texmf-dist/tex/latex/psnfss/times.sty
Package: times 2005/04/12 PSNFSS-v9.2a (SPQR) 
)
(/usr/share/texlive/texmf-dist/tex/generic/thumbpdf/thumbpdf.sty
Package: thumbpdf 2018/09/07 v3.17 Inclusion of thumbnails (HO)
THUMBPDF: Compressed PDF objects of PDF 1.5 are not supported
)
(/usr/share/texlive/texmf-dist/tex/latex/hyperref/hyperref.sty
Package: hyperref 2020/01/14 v7.00d Hypertext links for LaTeX

(/usr/share/texlive/texmf-dist/tex/generic/pdfescape/pdfescape.sty
Package: pdfescape 2019/12/09 v1.15 Implements pdfTeX's escape features (HO)
)
(/usr/share/texlive/texmf-dist/tex/latex/hycolor/hycolor.sty
Package: hycolor 2020-01-27 v1.10 Color options for hyperref/bookmark (HO)
)
(/usr/share/texlive/texmf-dist/tex/latex/letltxmacro/letltxmacro.sty
Package: letltxmacro 2019/12/03 v1.6 Let assignment for LaTeX macros (HO)
)
(/usr/share/texlive/texmf-dist/tex/latex/auxhook/auxhook.sty
Package: auxhook 2019-12-17 v1.6 Hooks for auxiliary files (HO)
)
\@linkdim=\dimen155
\Hy@linkcounter=\count199
\Hy@pagecounter=\count266

(/usr/share/texlive/texmf-dist/tex/latex/hyperref/pd1enc.def
File: pd1enc.def 2020/01/14 v7.00d Hyperref: PDFDocEncoding definition (HO)
Now handling font encoding PD1 ...
... no UTF-8 mapping file for font encoding PD1
)
(/usr/share/texlive/texmf-dist/tex/generic/intcalc/intcalc.sty
Package: intcalc 2019/12/15 v1.3 Expandable calculations with integers (HO)
)
(/usr/share/texlive/texmf-dist/tex/generic/etexcmds/etexcmds.sty
Package: etexcmds 2019/12/15 v1.7 Avoid name clashes with e-TeX commands (HO)
)
\Hy@SavedSpaceFactor=\count267
\pdfmajorversion=\count268
Package hyperref Info: Option `bookmarks' set `true' on input line 4421.
Package hyperref Info: Option `bookmarksnumbered' set `true' on input line 4421
.


Package hyperref Warning: Values of option `pdfpagemode':
(hyperref)                * `UseNone'
(hyperref)                * `UseOutlines'
(hyperref)                * `UseThumbs'
(hyperref)                * `FullScreen'
(hyperref)                * `UseOC' (PDF 1.5)
(hyperref)                * `UseAttachments' (PDF 1.6)
(hyperref)                * An empty value disables the option.
(hyperref)                Unknown value `None' on input line 4421.

Package hyperref Info: Hyper figures OFF on input line 4547.
Package hyperref Info: Link nesting OFF on input line 4552.
Package hyperref Info: Hyper index ON on input line 4555.
Package hyperref Info: Plain pages OFF on input line 4562.
Package hyperref Info: Backreferencing OFF on input line 4567.
Package hyperref Info: Implicit mode ON; LaTeX internals redefined.
Package hyperref Info: Bookmarks ON on input line 4800.
\c@Hy@tempcnt=\count269
LaTeX Info: Redefining \url on input line 5159.
\XeTeXLinkMargin=\dimen156
(/usr/share/texlive/texmf-dist/tex/generic/bitset/bitset.sty
Package: bitset 2019/12/09 v1.3 Handle bit-vector datatype (HO)

(/usr/share/texlive/texmf-dist/tex/generic/bigintcalc/bigintcalc.sty
Package: bigintcalc 2019/12/15 v1.5 Expandable calculations on big integers (HO
)
))
\Fld@menulength=\count270
\Field@Width=\dimen157
\Fld@charsize=\dimen158
Package hyperref Info: Hyper figures OFF on input line 6430.
Package hyperref Info: Link nesting OFF on input line 6435.
Package hyperref Info: Hyper index ON on input line 6438.
Package hyperref Info: backreferencing OFF on input line 6445.
Package hyperref Info: Link coloring OFF on input line 6450.
Package hyperref Info: Link coloring with OCG OFF on input line 6455.
Package hyperref Info: PDF/A mode OFF on input line 6460.
LaTeX Info: Redefining \ref on input line 6500.
LaTeX Info: Redefining \pageref on input line 6504.

(/usr/share/texlive/texmf-dist/tex/generic/atbegshi/atbegshi.sty
Package: atbegshi 2019/12/05 v1.19 At begin shipout hook (HO)
)
\Hy@abspage=\count271
\c@Item=\count272
\c@Hfootnote=\count273
)
Package hyperref Info: Driver: hpdftex.

(/usr/share/texlive/texmf-dist/tex/latex/hyperref/hpdftex.def
File: hpdftex.def 2020/01/14 v7.00d Hyperref driver for pdfTeX

(/usr/share/texlive/texmf-dist/tex/latex/atveryend/atveryend.sty
Package: atveryend 2019-12-11 v1.11 Hooks at the very end of document (HO)
Package atveryend Info: \enddocument detected (standard20110627).
)
\Fld@listcount=\count274
\c@bookmark@seq@number=\count275

(/usr/share/texlive/texmf-dist/tex/latex/rerunfilecheck/rerunfilecheck.sty
Package: rerunfilecheck 2019/12/05 v1.9 Rerun checks for auxiliary files (HO)

(/usr/share/texlive/texmf-dist/tex/generic/uniquecounter/uniquecounter.sty
Package: uniquecounter 2019/12/15 v1.4 Provide unlimited unique counter (HO)
)
Package uniquecounter Info: New unique counter `rerunfilecheck' on input line 2
86.
)
\Hy@SectionHShift=\skip58
)
(/usr/share/texlive/texmf-dist/tex/latex/graphics/color.sty
Package: color 2019/11/23 v1.2a Standard LaTeX Color (DPC)

(/usr/share/texlive/texmf-dist/tex/latex/graphics-cfg/color.cfg
File: color.cfg 2016/01/02 v1.6 sample color configuration
)
Package color Info: Driver file: pdftex.def on input line 147.

(/usr/share/texlive/texmf-dist/tex/latex/graphics/dvipsnam.def
File: dvipsnam.def 2016/06/17 v3.0m Driver-dependent file (DPC,SPQR)
))
(/usr/share/texlive/texmf-dist/tex/generic/babel/babel.sty
Package: babel 2020/02/14 3.40 The Babel package

(/usr/share/texlive/texmf-dist/tex/generic/babel/switch.def
File: switch.def 2020/02/14 3.40 Babel switching mechanism
)
(/usr/share/texlive/texmf-dist/tex/generic/babel-english/english.ldf
Language: english 2017/06/06 v3.3r English support from the babel system

(/usr/share/texlive/texmf-dist/tex/generic/babel/babel.def
File: babel.def 2020/02/14 3.40 Babel common definitions
\babel@savecnt=\count276
\U@D=\dimen159

(/usr/share/texlive/texmf-dist/tex/generic/babel/txtbabel.def)
\bbl@readstream=\read2
\bbl@dirlevel=\count277
)
Package babel Info: \l@british = using hyphenrules for english
(babel)             (\language0) on input line 82.
Package babel Info: \l@UKenglish = using hyphenrules for english
(babel)             (\language0) on input line 83.
Package babel Info: \l@canadian = using hyphenrules for english
(babel)             (\language0) on input line 102.
Package babel Info: \l@australian = using hyphenrules for english
(babel)             (\language0) on input line 105.
Package babel Info: \l@newzealand = using hyphenrules for english
(babel)             (\language0) on input line 108.
))
(/usr/share/texlive/texmf-dist/tex/latex/l3backend/l3backend-pdfmode.def
File: l3backend-pdfmode.def 2020-02-03 L3 backend support: PDF mode
\l__kernel_color_stack_int=\count278
\l__pdf_internal_box=\box53
)
(./manual_SPECFEM3D_GLOBE.aux)
\openout1 = `manual_SPECFEM3D_GLOBE.aux'.

LaTeX Font Info:    Checking defaults for OML/cmm/m/it on input line 87.
LaTeX Font Info:    ... okay on input line 87.
LaTeX Font Info:    Checking defaults for OMS/cmsy/m/n on input line 87.
LaTeX Font Info:    ... okay on input line 87.
LaTeX Font Info:    Checking defaults for OT1/cmr/m/n on input line 87.
LaTeX Font Info:    ... okay on input line 87.
LaTeX Font Info:    Checking defaults for T1/cmr/m/n on input line 87.
LaTeX Font Info:    ... okay on input line 87.
LaTeX Font Info:    Checking defaults for TS1/cmr/m/n on input line 87.
LaTeX Font Info:    ... okay on input line 87.
LaTeX Font Info:    Checking defaults for OMX/cmex/m/n on input line 87.
LaTeX Font Info:    ... okay on input line 87.
LaTeX Font Info:    Checking defaults for U/cmr/m/n on input line 87.
LaTeX Font Info:    ... okay on input line 87.
LaTeX Font Info:    Checking defaults for PD1/pdf/m/n on input line 87.
LaTeX Font Info:    ... okay on input line 87.
LaTeX Font Info:    Trying to load font information for T1+ptm on input line 87
.

(/usr/share/texlive/texmf-dist/tex/latex/psnfss/t1ptm.fd
File: t1ptm.fd 2001/06/04 font definitions for T1/ptm.
)
*geometry* driver: auto-detecting
*geometry* detected driver: pdftex
*geometry* verbose mode - [ preamble ] result:
* driver: pdftex
* paper: letterpaper
* layout: <same size as paper>
* layoutoffset:(h,v)=(0.0pt,0.0pt)
* modes: 
* h-part:(L,W,R)=(72.26999pt, 469.75502pt, 72.26999pt)
* v-part:(T,H,B)=(72.26999pt, 650.43001pt, 72.26999pt)
* \paperwidth=614.295pt
* \paperheight=794.96999pt
* \textwidth=469.75502pt
* \textheight=650.43001pt
* \oddsidemargin=0.0pt
* \evensidemargin=0.0pt
* \topmargin=-30.06749pt
* \headheight=12.0pt
* \headsep=18.06749pt
* \topskip=10.0pt
* \footskip=25.29494pt
* \marginparwidth=69.0pt
* \marginparsep=7.0pt
* \columnsep=10.0pt
* \skip\footins=9.0pt plus 4.0pt minus 2.0pt
* \hoffset=0.0pt
* \voffset=0.0pt
* \mag=1000
* \@twocolumnfalse
* \@twosidefalse
* \@mparswitchfalse
* \@reversemarginfalse
* (1in=72.27pt=25.4mm, 1cm=28.453pt)

(/usr/share/texlive/texmf-dist/tex/context/base/mkii/supp-pdf.mkii
[Loading MPS to PDF converter (version 2006.09.02).]
\scratchcounter=\count279
\scratchdimen=\dimen160
\scratchbox=\box54
\nofMPsegments=\count280
\nofMParguments=\count281
\everyMPshowfont=\toks26
\MPscratchCnt=\count282
\MPscratchDim=\dimen161
\MPnumerator=\count283
\makeMPintoPDFobject=\count284
\everyMPtoPDFconversion=\toks27
)
\AtBeginShipoutBox=\box55
Package hyperref Info: Link coloring OFF on input line 87.
 (/usr/share/texlive/texmf-dist/tex/latex/hyperref/nameref.sty
Package: nameref 2019/09/16 v2.46 Cross-referencing by name of section

(/usr/share/texlive/texmf-dist/tex/latex/refcount/refcount.sty
Package: refcount 2019/12/15 v3.6 Data extraction from label references (HO)
)
(/usr/share/texlive/texmf-dist/tex/generic/gettitlestring/gettitlestring.sty
Package: gettitlestring 2019/12/15 v1.6 Cleanup title references (HO)
)
\c@section@level=\count285
LaTeX Info: Redefining \Ref on input line 520.
)
LaTeX Info: Redefining \ref on input line 87.
LaTeX Info: Redefining \pageref on input line 87.
LaTeX Info: Redefining \nameref on input line 87.

(./manual_SPECFEM3D_GLOBE.out) (./manual_SPECFEM3D_GLOBE.out)
\@outlinefile=\write3
\openout3 = `manual_SPECFEM3D_GLOBE.out'.

LaTeX Info: Redefining \Ref on input line 87.
<figures/specfem_3d_globe-cover.pdf, id=233, 532.38799pt x 718.84557pt>
File: figures/specfem_3d_globe-cover.pdf Graphic file (type pdf)
<use figures/specfem_3d_globe-cover.pdf>
Package pdftex.def Info: figures/specfem_3d_globe-cover.pdf  used on input line
 91.
(pdftex.def)             Requested size: 509.86597pt x 688.44957pt.
 [1

 <./figures/specfem_3d_globe-cover.pdf>]
LaTeX Font Info:    Trying to load font information for U+msa on input line 104
.

(/usr/share/texlive/texmf-dist/tex/latex/amsfonts/umsa.fd
File: umsa.fd 2013/01/14 v3.01 AMS symbols A
)
LaTeX Font Info:    Trying to load font information for U+msb on input line 104
.

(/usr/share/texlive/texmf-dist/tex/latex/amsfonts/umsb.fd
File: umsb.fd 2013/01/14 v3.01 AMS symbols B
)
LaTeX Font Info:    Trying to load font information for TS1+ptm on input line 1
04.

(/usr/share/texlive/texmf-dist/tex/latex/psnfss/ts1ptm.fd
File: ts1ptm.fd 2001/06/04 font definitions for TS1/ptm.
)pdfTeX warning (ext4): destination with the same identifier (name{page.1}) has
 been already used, duplicate ignored
<to be read again> 
                   \relax 
l.104 
       [1

{/var/lib/texmf/fonts/map/pdftex/updmap/pdftex.map}]
Underfull \hbox (badness 10000) in paragraph at lines 112--144

 []

LaTeX Font Info:    Trying to load font information for T1+pcr on input line 14
6.
(/usr/share/texlive/texmf-dist/tex/latex/psnfss/t1pcr.fd
File: t1pcr.fd 2001/06/04 font definitions for T1/pcr.
)
Underfull \hbox (badness 10000) in paragraph at lines 145--147

 []

<figures/logo_cnrs.png, id=285, 150.5625pt x 150.5625pt>
File: figures/logo_cnrs.png Graphic file (type png)
<use figures/logo_cnrs.png>
Package pdftex.def Info: figures/logo_cnrs.png  used on input line 152.
(pdftex.def)             Requested size: 58.71938pt x 58.71913pt.
<figures/logo_princeton.pdf, id=286, 144.54pt x 161.60374pt>
File: figures/logo_princeton.pdf Graphic file (type pdf)
<use figures/logo_princeton.pdf>
Package pdftex.def Info: figures/logo_princeton.pdf  used on input line 153.
(pdftex.def)             Requested size: 58.71938pt x 65.65135pt.
<figures/logo_aix_marseille_universite.png, id=287, 1185.42876pt x 426.59375pt>

File: figures/logo_aix_marseille_universite.png Graphic file (type png)
<use figures/logo_aix_marseille_universite.png>
Package pdftex.def Info: figures/logo_aix_marseille_universite.png  used on inp
ut line 154.
(pdftex.def)             Requested size: 70.46037pt x 25.35367pt.
<figures/logo_CSC_China.jpg, id=288, 612.2875pt x 602.25pt>
File: figures/logo_CSC_China.jpg Graphic file (type jpg)
<use figures/logo_CSC_China.jpg>
Package pdftex.def Info: figures/logo_CSC_China.jpg  used on input line 155.
(pdftex.def)             Requested size: 56.3683pt x 55.44075pt.
<figures/logo_ETH.jpg, id=289, 497.86pt x 101.37875pt>
File: figures/logo_ETH.jpg Graphic file (type jpg)
<use figures/logo_ETH.jpg>
Package pdftex.def Info: figures/logo_ETH.jpg  used on input line 156.
(pdftex.def)             Requested size: 70.46037pt x 14.34761pt.
<figures/logo_inria.jpg, id=290, 170.6375pt x 62.2325pt>
File: figures/logo_inria.jpg Graphic file (type jpg)
<use figures/logo_inria.jpg>
Package pdftex.def Info: figures/logo_inria.jpg  used on input line 157.
(pdftex.def)             Requested size: 70.46037pt x 25.6978pt.
<figures/logo_UPPA.png, id=291, 243.7908pt x 225.2415pt>
File: figures/logo_UPPA.png Graphic file (type png)
<use figures/logo_UPPA.png>
Package pdftex.def Info: figures/logo_UPPA.png  used on input line 158.
(pdftex.def)             Requested size: 65.76541pt x 60.76102pt.
<figures/logo_NVIDIA.jpg, id=293, 725.71124pt x 540.0175pt>
File: figures/logo_NVIDIA.jpg Graphic file (type jpg)
<use figures/logo_NVIDIA.jpg>
Package pdftex.def Info: figures/logo_NVIDIA.jpg  used on input line 162.
(pdftex.def)             Requested size: 70.46037pt x 52.43106pt.
<figures/logo_IUF.jpg, id=294, 147.55125pt x 146.5475pt>
File: figures/logo_IUF.jpg Graphic file (type jpg)
<use figures/logo_IUF.jpg>
Package pdftex.def Info: figures/logo_IUF.jpg  used on input line 163.
(pdftex.def)             Requested size: 58.71938pt x 58.3183pt.
<figures/logo_Caltech.png, id=295, 1027.84pt x 1035.87pt>
File: figures/logo_Caltech.png Graphic file (type png)
<use figures/logo_Caltech.png>
Package pdftex.def Info: figures/logo_Caltech.png  used on input line 164.
(pdftex.def)             Requested size: 63.41434pt x 63.90399pt.
<figures/logo_Harvard.jpg, id=296, 225.84375pt x 225.84375pt>
File: figures/logo_Harvard.jpg Graphic file (type jpg)
<use figures/logo_Harvard.jpg>
Package pdftex.def Info: figures/logo_Harvard.jpg  used on input line 165.
(pdftex.def)             Requested size: 63.41434pt x 63.41501pt.
<figures/logo_IPGP.jpg, id=297, 199.2243pt x 256.0767pt>
File: figures/logo_IPGP.jpg Graphic file (type jpg)
<use figures/logo_IPGP.jpg>
Package pdftex.def Info: figures/logo_IPGP.jpg  used on input line 166.
(pdftex.def)             Requested size: 63.41434pt x 81.50859pt.
<figures/logo_University_of_Toronto.jpg, id=298, 250.9375pt x 247.92625pt>
File: figures/logo_University_of_Toronto.jpg Graphic file (type jpg)
<use figures/logo_University_of_Toronto.jpg>
Package pdftex.def Info: figures/logo_University_of_Toronto.jpg  used on input 
line 170.
(pdftex.def)             Requested size: 52.61232pt x 51.97903pt.
<figures/logo_Univ_Toulouse.jpg, id=299, 164.7756pt x 244.9953pt>
File: figures/logo_Univ_Toulouse.jpg Graphic file (type jpg)
<use figures/logo_Univ_Toulouse.jpg>
Package pdftex.def Info: figures/logo_Univ_Toulouse.jpg  used on input line 172
.
(pdftex.def)             Requested size: 52.61232pt x 78.22438pt.
<figures/logo_Fairbanks.jpg, id=300, 602.25pt x 467.7475pt>
File: figures/logo_Fairbanks.jpg Graphic file (type jpg)
<use figures/logo_Fairbanks.jpg>
Package pdftex.def Info: figures/logo_Fairbanks.jpg  used on input line 174.
(pdftex.def)             Requested size: 61.07043pt x 47.42697pt.
<figures/logo_Intel_Exascale_Labs.png, id=301, 301.125pt x 139.52126pt>
File: figures/logo_Intel_Exascale_Labs.png Graphic file (type png)
<use figures/logo_Intel_Exascale_Labs.png>
Package pdftex.def Info: figures/logo_Intel_Exascale_Labs.png  used on input li
ne 175.
(pdftex.def)             Requested size: 65.76541pt x 30.47122pt.
<figures/logo_Maison_Simulation.jpg, id=302, 252.2223pt x 228.3732pt>
File: figures/logo_Maison_Simulation.jpg Graphic file (type jpg)
<use figures/logo_Maison_Simulation.jpg>
Package pdftex.def Info: figures/logo_Maison_Simulation.jpg  used on input line
 176.
(pdftex.def)             Requested size: 61.07043pt x 55.29504pt.
<figures/logo_fondation_Del_Duca.png, id=303, 178.6675pt x 145.54375pt>
File: figures/logo_fondation_Del_Duca.png Graphic file (type png)
<use figures/logo_fondation_Del_Duca.png>
Package pdftex.def Info: figures/logo_fondation_Del_Duca.png  used on input lin
e 177.
(pdftex.def)             Requested size: 61.07043pt x 49.74849pt.
pdfTeX warning (ext4): destination with the same identifier (name{page.1}) has 
been already used, duplicate ignored
<to be read again> 
                   \relax 
l.181 \newpage
              {} [1 <./figures/logo_cnrs.png> <./figures/logo_princeton.pdf> <.
/figures/logo_aix_marseille_universite.png> <./figures/logo_CSC_China.jpg> <./f
igures/logo_ETH.jpg> <./figures/logo_inria.jpg> <./figures/logo_UPPA.png> <./fi
gures/logo_NVIDIA.jpg> <./figures/logo_IUF.jpg> <./figures/logo_Caltech.png> <.
/figures/logo_Harvard.jpg> <./figures/logo_IPGP.jpg> <./figures/logo_University
_of_Toronto.jpg> <./figures/logo_Univ_Toulouse.jpg> <./figures/logo_Fairbanks.j
pg> <./figures/logo_Intel_Exascale_Labs.png (PNG copy)> <./figures/logo_Maison_
Simulation.jpg> <./figures/logo_fondation_Del_Duca.png>]
(./manual_SPECFEM3D_GLOBE.toc [2

])
\tf@toc=\write4
\openout4 = `manual_SPECFEM3D_GLOBE.toc'.

 [3]
Chapter 1.

Package natbib Warning: Citation `TrKoLi08' on page 4 undefined on input line 1
89.


Package natbib Warning: Citation `PeKoLuMaLeCaLeMaLiBlNiBaTr11' on page 4 undef
ined on input line 189.


Package natbib Warning: Citation `BeMaPa94' on page 4 undefined on input line 1
90.


Package natbib Warning: Citation `Ch00' on page 4 undefined on input line 190.


Package natbib Warning: Citation `KoWoHu02' on page 4 undefined on input line 1
90.


Package natbib Warning: Citation `ChCaVi03' on page 4 undefined on input line 1
90.


Package natbib Warning: Citation `LaWaBe05' on page 4 undefined on input line 1
90.


Package natbib Warning: Citation `Kop06' on page 4 undefined on input line 190.



Package natbib Warning: Citation `WiStBuGh10' on page 4 undefined on input line
 190.


Package natbib Warning: Citation `AcKo11' on page 4 undefined on input line 190
.


Package natbib Warning: Citation `ReHi73' on page 4 undefined on input line 191
.


Package natbib Warning: Citation `LeRa74' on page 4 undefined on input line 191
.


Package natbib Warning: Citation `Arn82' on page 4 undefined on input line 191.



Package natbib Warning: Citation `JoPi86' on page 4 undefined on input line 191
.


Package natbib Warning: Citation `BoMaHe91' on page 4 undefined on input line 1
91.


Package natbib Warning: Citation `FaRi99' on page 4 undefined on input line 191
.


Package natbib Warning: Citation `HuHuRa99' on page 4 undefined on input line 1
91.


Package natbib Warning: Citation `CoKaSh00' on page 4 undefined on input line 1
91.


Package natbib Warning: Citation `GiHeWa02' on page 4 undefined on input line 1
91.


Package natbib Warning: Citation `RiWh03' on page 4 undefined on input line 191
.


Package natbib Warning: Citation `MoRi05' on page 4 undefined on input line 191
.


Package natbib Warning: Citation `GrScSc06' on page 4 undefined on input line 1
91.


Package natbib Warning: Citation `AiMoMu06' on page 4 undefined on input line 1
91.


Package natbib Warning: Citation `BeLaPi06' on page 4 undefined on input line 1
91.


Package natbib Warning: Citation `DuKa06' on page 4 undefined on input line 191
.


Package natbib Warning: Citation `DeSeWh08' on page 4 undefined on input line 1
91.


Package natbib Warning: Citation `PuAmKa09' on page 4 undefined on input line 1
91.


Package natbib Warning: Citation `WiStBuGh10' on page 4 undefined on input line
 191.


Package natbib Warning: Citation `DeSe10' on page 4 undefined on input line 191
.


Package natbib Warning: Citation `EtChViGl10' on page 4 undefined on input line
 191.


Package natbib Warning: Citation `WiStBuGh10' on page 4 undefined on input line
 191.


Package natbib Warning: Citation `AcKo11' on page 4 undefined on input line 191
.


Package natbib Warning: Citation `OlSe11' on page 4 undefined on input line 192
.


Underfull \hbox (badness 10000) in paragraph at lines 187--193

 []


Package natbib Warning: Citation `MaPa89' on page 4 undefined on input line 194
.


Package natbib Warning: Citation `SePr94' on page 4 undefined on input line 194
.


Package natbib Warning: Citation `DeFiMu02' on page 4 undefined on input line 1
94.


Package natbib Warning: Citation `Coh02' on page 4 undefined on input line 194.



Package natbib Warning: Citation `DeSe07' on page 4 undefined on input line 194
.


Package natbib Warning: Citation `SeOl08' on page 4 undefined on input line 194
.


Package natbib Warning: Citation `AiWa09' on page 4 undefined on input line 194
.


Package natbib Warning: Citation `AiWa10' on page 4 undefined on input line 194
.


Package natbib Warning: Citation `MeStTh12' on page 4 undefined on input line 1
94.


Package natbib Warning: Citation `KoTsChTr03' on page 4 undefined on input line
 196.


Package natbib Warning: Citation `TsKoChTr03' on page 4 undefined on input line
 196.


Package natbib Warning: Citation `KoLaMi08a' on page 4 undefined on input line 
196.


Package natbib Warning: Citation `CaKoLaTiMiLeSnTr08' on page 4 undefined on in
put line 196.


Package natbib Warning: Citation `KoViCh10' on page 4 undefined on input line 1
96.


Package natbib Warning: Citation `Kom11' on page 4 undefined on input line 196.



Package natbib Warning: Citation `MiKo10' on page 4 undefined on input line 196
.


Package natbib Warning: Citation `KoMiEr09' on page 4 undefined on input line 1
96.


Package natbib Warning: Citation `KoErGoMi10' on page 4 undefined on input line
 196.


Package natbib Warning: Citation `DeFiMu02' on page 4 undefined on input line 1
96.


Package natbib Warning: Citation `KoLaMi08a' on page 4 undefined on input line 
196.


Package natbib Warning: Citation `WinBoyd96' on page 4 undefined on input line 
196.


Package natbib Warning: Citation `TaWi00' on page 4 undefined on input line 196
.


Package natbib Warning: Citation `KoMaTrTaWi01' on page 4 undefined on input li
ne 196.


Package natbib Warning: Citation `Coh02' on page 4 undefined on input line 196.



Package natbib Warning: Citation `MeViSa06' on page 4 undefined on input line 1
96.


Underfull \hbox (badness 10000) in paragraph at lines 194--197

 []


Package natbib Warning: Citation `BeGlCrViPi07' on page 4 undefined on input li
ne 199.


Package natbib Warning: Citation `BeGlCrVi09' on page 4 undefined on input line
 199.


Package natbib Warning: Citation `PuAmKa09' on page 4 undefined on input line 1
99.


Package natbib Warning: Citation `TaCrEtViBeSa10' on page 4 undefined on input 
line 199.


Package natbib Warning: Citation `KoTr02a' on page 4 undefined on input line 20
1.


Package natbib Warning: Citation `KoLiTrSuStSh04' on page 4 undefined on input 
line 201.


Package natbib Warning: Citation `LeChLiKoHuTr08' on page 4 undefined on input 
line 201.


Package natbib Warning: Citation `LeChKoHuTr09' on page 4 undefined on input li
ne 201.


Package natbib Warning: Citation `LeKoHuTr09' on page 4 undefined on input line
 201.


Underfull \hbox (badness 10000) in paragraph at lines 198--203

 []


Package natbib Warning: Citation `TrKoLi08' on page 4 undefined on input line 2
05.


Package natbib Warning: Citation `PeKoLuMaLeCaLeMaLiBlNiBaTr11' on page 4 undef
ined on input line 205.


Package natbib Warning: Citation `KoVi98' on page 4 undefined on input line 205
.


Package natbib Warning: Citation `KoTr99' on page 4 undefined on input line 205
.


Package natbib Warning: Citation `Ch00' on page 4 undefined on input line 205.


Package natbib Warning: Citation `KoTr02a' on page 4 undefined on input line 20
5.


Package natbib Warning: Citation `KoTr02b' on page 4 undefined on input line 20
5.


Package natbib Warning: Citation `KoRiTr02' on page 4 undefined on input line 2
05.


Package natbib Warning: Citation `ChCaVi03' on page 4 undefined on input line 2
05.


Package natbib Warning: Citation `CaChViMo03' on page 4 undefined on input line
 205.


Package natbib Warning: Citation `ChVa04' on page 4 undefined on input line 205
.


Package natbib Warning: Citation `ChKoViCaVaFe07' on page 4 undefined on input 
line 205.


Package natbib Warning: Citation `Coh02' on page 4 undefined on input line 207.



Package natbib Warning: Citation `DeSe07' on page 4 undefined on input line 207
.


Package natbib Warning: Citation `SeOl07' on page 4 undefined on input line 207
.


Package natbib Warning: Citation `SeOl08' on page 4 undefined on input line 207
.


Package natbib Warning: Citation `MeStTh12' on page 4 undefined on input line 2
07.


Underfull \hbox (badness 10000) in paragraph at lines 204--208

 []


Package natbib Warning: Citation `ChTr07' on page 4 undefined on input line 212
.


Package natbib Warning: Citation `SaKoTr10' on page 4 undefined on input line 2
13.


Package natbib Warning: Citation `TrKoLi08' on page 4 undefined on input line 2
15.


Package natbib Warning: Citation `PeKoLuMaLeCaLeMaLiBlNiBaTr11' on page 4 undef
ined on input line 215.


Package natbib Warning: Citation `LiTr06' on page 4 undefined on input line 215
.


Package natbib Warning: Citation `LiTr08' on page 4 undefined on input line 215
.


Package natbib Warning: Citation `FiIgBuKe09' on page 4 undefined on input line
 215.


Package natbib Warning: Citation `ViOp09' on page 4 undefined on input line 215
.


Underfull \hbox (badness 10000) in paragraph at lines 209--216

 []


Package natbib Warning: Citation `Pat84' on page 4 undefined on input line 217.



Package natbib Warning: Citation `MaPa89' on page 4 undefined on input line 217
.


Package natbib Warning: Citation `CoJoTo93' on page 4 undefined on input line 2
20.


Package natbib Warning: Citation `Kom97' on page 4 undefined on input line 220.



Package natbib Warning: Citation `FaMaPaQu97' on page 4 undefined on input line
 221.


Package natbib Warning: Citation `CaGa97' on page 4 undefined on input line 221
.


Package natbib Warning: Citation `KoVi98' on page 4 undefined on input line 221
.


Package natbib Warning: Citation `KoTr99' on page 4 undefined on input line 221
.


Package natbib Warning: Citation `SePr94' on page 4 undefined on input line 223
.


Package natbib Warning: Citation `PrCaSe94' on page 4 undefined on input line 2
23.


Package natbib Warning: Citation `SePrPr95' on page 4 undefined on input line 2
23.


Underfull \hbox (badness 10000) in paragraph at lines 217--224

 []


Package natbib Warning: Citation `GrLuSk94' on page 4 undefined on input line 2
29.


Package natbib Warning: Citation `Pac97' on page 4 undefined on input line 229.



Underfull \hbox (badness 10000) in paragraph at lines 225--230

 []


Package natbib Warning: Citation `KoTsChTr03' on page 4 undefined on input line
 232.


Package natbib Warning: Citation `CaKoLaTiMiLeSnTr08' on page 4 undefined on in
put line 234.


Underfull \hbox (badness 10000) in paragraph at lines 231--236

 []

[4

]
Underfull \hbox (badness 10000) in paragraph at lines 237--239

 []


Package natbib Warning: Citation `Kom11' on page 5 undefined on input line 240.



Package natbib Warning: Citation `MiKo10' on page 5 undefined on input line 240
.


Package natbib Warning: Citation `KoMiEr09' on page 5 undefined on input line 2
40.


Package natbib Warning: Citation `KoErGoMi10' on page 5 undefined on input line
 240.


Underfull \hbox (badness 10000) in paragraph at lines 240--241

 []


Package natbib Warning: Citation `MaKoEz08' on page 5 undefined on input line 2
44.


Package natbib Warning: Citation `MaKoGe08' on page 5 undefined on input line 2
44.


Package natbib Warning: Citation `MaKo09' on page 5 undefined on input line 244
.


Package natbib Warning: Citation `MaKoGeBr10' on page 5 undefined on input line
 244.


Package natbib Warning: Citation `KoMa07' on page 5 undefined on input line 244
.


Package natbib Warning: Citation `TrKoLi08' on page 5 undefined on input line 2
49.


Package natbib Warning: Citation `PeKoLuMaLeCaLeMaLiBlNiBaTr11' on page 5 undef
ined on input line 249.


Package natbib Warning: Citation `VaCaSaKoVi99' on page 5 undefined on input li
ne 249.


Package natbib Warning: Citation `LeChLiKoHuTr08' on page 5 undefined on input 
line 249.


Package natbib Warning: Citation `LeChKoHuTr09' on page 5 undefined on input li
ne 249.


Package natbib Warning: Citation `LeKoHuTr09' on page 5 undefined on input line
 249.


Package natbib Warning: Citation `KoMiEr09' on page 5 undefined on input line 2
49.


Package natbib Warning: Citation `KoErGoMi10' on page 5 undefined on input line
 249.


Package natbib Warning: Citation `WiKoScTr04' on page 5 undefined on input line
 249.


Package natbib Warning: Citation `KoLiTrSuStSh04' on page 5 undefined on input 
line 249.


Package natbib Warning: Citation `ChKoViCaVaFe07' on page 5 undefined on input 
line 249.


Package natbib Warning: Citation `MaKoDi09' on page 5 undefined on input line 2
49.


Package natbib Warning: Citation `KoViCh10' on page 5 undefined on input line 2
49.


Package natbib Warning: Citation `CaKoLaTiMiLeSnTr08' on page 5 undefined on in
put line 249.


Package natbib Warning: Citation `TrKoHjLiZhPeBoMcFrTrHu10' on page 5 undefined
 on input line 249.


Package natbib Warning: Citation `KoRiTr02' on page 5 undefined on input line 2
49.


Package natbib Warning: Citation `KoTr02a' on page 5 undefined on input line 24
9.


Package natbib Warning: Citation `KoTr02b' on page 5 undefined on input line 24
9.


Package natbib Warning: Citation `KoTr99' on page 5 undefined on input line 249
.


Package natbib Warning: Citation `KoVi98' on page 5 undefined on input line 249
.


Overfull \hbox (41.60056pt too wide) in paragraph at lines 248--250
\T1/ptm/m/n/10 If you use SPECFEM3D_GLOBE for your own re-search, please cite a
t least one of the fol-low-ing ar-ti-cles: \T1/ptm/b/n/10 ???????????????????
 []


Underfull \hbox (badness 10000) in paragraph at lines 248--250

 []


Package natbib Warning: Citation `KoErGoMi10' on page 5 undefined on input line
 252.


Package natbib Warning: Citation `KoViCh10' on page 5 undefined on input line 2
52.


Package natbib Warning: Citation `Kom11' on page 5 undefined on input line 252.



Package natbib Warning: Citation `PeKoLuMaLeCaLeMaLiBlNiBaTr11' on page 5 undef
ined on input line 252.


Package natbib Warning: Citation `CaKoLaTiMiLeSnTr08' on page 5 undefined on in
put line 252.


Underfull \hbox (badness 10000) in paragraph at lines 251--253

 []


Package natbib Warning: Citation `Kom11' on page 5 undefined on input line 254.



Package natbib Warning: Citation `MiKo10' on page 5 undefined on input line 254
.


Package natbib Warning: Citation `KoMiEr09' on page 5 undefined on input line 2
54.


Package natbib Warning: Citation `KoErGoMi10' on page 5 undefined on input line
 254.


Underfull \hbox (badness 10000) in paragraph at lines 254--255

 []


Package natbib Warning: Citation `WiKoScTr04' on page 5 undefined on input line
 257.


Package natbib Warning: Citation `JiTsKoTr05' on page 5 undefined on input line
 257.


Package natbib Warning: Citation `KrJiKoTr06a' on page 5 undefined on input lin
e 257.


Package natbib Warning: Citation `KrJiKoTr06b' on page 5 undefined on input lin
e 257.


Package natbib Warning: Citation `LeChLiKoHuTr08' on page 5 undefined on input 
line 257.


Package natbib Warning: Citation `LeChKoHuTr09' on page 5 undefined on input li
ne 257.


Package natbib Warning: Citation `LeKoHuTr09' on page 5 undefined on input line
 257.


Package natbib Warning: Citation `ChFaKo04' on page 5 undefined on input line 2
57.


Package natbib Warning: Citation `FaChKo04' on page 5 undefined on input line 2
57.


Package natbib Warning: Citation `RiRiKoTrHe02' on page 5 undefined on input li
ne 257.


Package natbib Warning: Citation `GoAmTaCaSmSaMaKo09' on page 5 undefined on in
put line 257.


Package natbib Warning: Citation `TrKo00' on page 5 undefined on input line 257
.


Package natbib Warning: Citation `SaKoTr10' on page 5 undefined on input line 2
57.


Package natbib Warning: Citation `RiVaWo99' on page 5 undefined on input line 2
58.


Underfull \hbox (badness 10000) in paragraph at lines 256--259

 []


Package natbib Warning: Citation `MaKoBlLe08' on page 5 undefined on input line
 260.


Package natbib Warning: Citation `CaKoLaTiMiLeSnTr08' on page 5 undefined on in
put line 261.


Package natbib Warning: Citation `KoLaMi08a' on page 5 undefined on input line 
261.


Package natbib Warning: Citation `MaKoBlLe08' on page 5 undefined on input line
 261.


Package natbib Warning: Citation `KoErGoMi10' on page 5 undefined on input line
 261.


Package natbib Warning: Citation `Kom11' on page 5 undefined on input line 261.



Underfull \hbox (badness 10000) in paragraph at lines 260--262

 []

[5]
Chapter 2.

Underfull \hbox (badness 10000) in paragraph at lines 289--290

 []


Underfull \hbox (badness 10000) in paragraph at lines 310--312

 []


Overfull \hbox (18.74498pt too wide) in paragraph at lines 313--314
\T1/pcr/m/n/10 ./configure FC=xlf90_r MPIFC=mpif90 CC=xlc_r CFLAGS="-O3 -q64" F
CFLAGS="-O3 -q64"\T1/ptm/m/n/10 . 
 []


Underfull \hbox (badness 10000) in paragraph at lines 313--314

 []


Underfull \hbox (badness 10000) in paragraph at lines 315--318

 []


Underfull \hbox (badness 10000) in paragraph at lines 319--328

 []

[6

]
Underfull \hbox (badness 10000) in paragraph at lines 390--406

 []

[7]
Overfull \hbox (10.11307pt too wide) in paragraph at lines 417--419
\T1/pcr/m/n/10 replace_use_mpi_with_include_mpif_dot_h.pl \T1/ptm/m/n/10 in the
 root di-rec-tory to re-place all of them with \T1/pcr/m/n/10 include
 []


Underfull \hbox (badness 10000) in paragraph at lines 428--429

 []


Underfull \hbox (badness 10000) in paragraph at lines 430--432

 []


Underfull \hbox (badness 10000) in paragraph at lines 433--437

 []


Underfull \hbox (badness 10000) in paragraph at lines 438--446

 []


Overfull \hbox (4.3218pt too wide) in paragraph at lines 447--450
\T1/pcr/m/n/10 load bgq-xl \T1/ptm/m/n/10 (an-other, less ef-fi-cient op-tion i
s to load the GNU com-pil-ers us-ing \T1/pcr/m/n/10 module load bgq-gnu/4.4.6
 []


Underfull \hbox (badness 10000) in paragraph at lines 447--450

 []


Underfull \hbox (badness 10000) in paragraph at lines 451--453

 []


Overfull \hbox (28.24498pt too wide) in paragraph at lines 454--456
\T1/pcr/m/n/10 ./configure FC=bgxlf90_r MPIFC=mpixlf90_r CC=bgxlc_r LOCAL_PATH_
IS_ALSO_GLOBAL=true 
 []


Underfull \hbox (badness 10000) in paragraph at lines 454--456

 []


Underfull \hbox (badness 10000) in paragraph at lines 457--459

 []


Overfull \hbox (46.24498pt too wide) in paragraph at lines 463--466
\T1/pcr/m/n/10 -qfree=f90 -qsuffix=f=f90 -g -qlanglvl=95pure -qhalt=w -Q -Q+ran
k,swap_all -Wl,-relax" 
 []


Overfull \hbox (3.27113pt too wide) in paragraph at lines 467--472
\T1/ptm/m/n/10 Option "-Wl,-relax" must be added on many (but not all) Blue-Gen
e sys-tems to be able to link the bi-na-ries \T1/pcr/m/n/10 xmeshfem3D
 []

[8]
Underfull \hbox (badness 10000) in paragraph at lines 492--496

 []


Underfull \hbox (badness 10000) in paragraph at lines 497--499

 []


Underfull \hbox (badness 10000) in paragraph at lines 500--505

 []


Overfull \hbox (112.24498pt too wide) in paragraph at lines 519--519
[] \T1/pcr/m/n/10 ${FCCOMPILE_CHECK} -o ${E}/xcreate_header_file $O/create_head
er_file.o $(XCREATE_HEADER_OBJECTS)[] 
 []


Overfull \hbox (136.24498pt too wide) in paragraph at lines 527--527
[]  \T1/pcr/m/n/10 ${MPIFCCOMPILE_CHECK} -o ${E}/xcreate_header_file $O/create_
header_file.o $(XCREATE_HEADER_OBJECTS)[] 
 []


Overfull \hbox (12.64168pt too wide) in paragraph at lines 558--561
[]\T1/ptm/m/n/10 To en-able OpenMP, un-com-ment the OpenMP com-piler op-tion in
 two lines in file \T1/pcr/m/n/10 src/specfem3D/Makefile.in
 []

[9] [10]
Chapter 3.

Package natbib Warning: Citation `KoVi98' on page 11 undefined on input line 59
2.


Package natbib Warning: Citation `KoTr99' on page 11 undefined on input line 59
2.


Package natbib Warning: Citation `Ch00' on page 11 undefined on input line 592.



Package natbib Warning: Citation `KoTr02a' on page 11 undefined on input line 5
92.


Package natbib Warning: Citation `KoTr02b' on page 11 undefined on input line 5
92.


Package natbib Warning: Citation `KoRiTr02' on page 11 undefined on input line 
592.


Package natbib Warning: Citation `ChCaVi03' on page 11 undefined on input line 
592.


Package natbib Warning: Citation `CaChViMo03' on page 11 undefined on input lin
e 592.


Package natbib Warning: Citation `ChVa04' on page 11 undefined on input line 59
3.


Package natbib Warning: Citation `Coh02' on page 11 undefined on input line 594
.


Package natbib Warning: Citation `DeSe07' on page 11 undefined on input line 59
4.


Package natbib Warning: Citation `SeOl07' on page 11 undefined on input line 59
5.


Package natbib Warning: Citation `Sad72' on page 11 undefined on input line 602
.


Package natbib Warning: Citation `RoIaPa96' on page 11 undefined on input line 
602.

<figures/mpi_slices.pdf, id=418, 289.08pt x 289.08pt>
File: figures/mpi_slices.pdf Graphic file (type pdf)
<use figures/mpi_slices.pdf>
Package pdftex.def Info: figures/mpi_slices.pdf  used on input line 612.
(pdftex.def)             Requested size: 211.38832pt x 211.38834pt.
<figures/fullmesh_18.pdf, id=419, 286.06876pt x 291.0875pt>
File: figures/fullmesh_18.pdf Graphic file (type pdf)
<use figures/fullmesh_18.pdf>
Package pdftex.def Info: figures/fullmesh_18.pdf  used on input line 612.
(pdftex.def)             Requested size: 211.38832pt x 215.09933pt.

Package natbib Warning: Citation `KoTr02a' on page 11 undefined on input line 6
69.


Package natbib Warning: Citation `KoTr02b' on page 11 undefined on input line 6
69.

[11

]

Package natbib Warning: Citation `DzAn81' on page 12 undefined on input line 69
4.


Package natbib Warning: Citation `KeEn91' on page 12 undefined on input line 69
8.


Package natbib Warning: Citation `gilbertdziewonski1975' on page 12 undefined o
n input line 699.


Package natbib Warning: Citation `KeEnBu95' on page 12 undefined on input line 
703.


Package natbib Warning: Citation `MoKe95' on page 12 undefined on input line 70
3.


Package natbib Warning: Citation `KeEnBu95' on page 12 undefined on input line 
707.

[12 <./figures/mpi_slices.pdf> <./figures/fullmesh_18.pdf>]

Package natbib Warning: Citation `KuDzEk06' on page 13 undefined on input line 
709.


Package natbib Warning: Citation `BaLaMa00' on page 13 undefined on input line 
732.


Package natbib Warning: Citation `RiVaWo99' on page 13 undefined on input line 
736.


Package natbib Warning: Citation `BaLaMa00' on page 13 undefined on input line 
736.


Package natbib Warning: Citation `RiDeVaWo10' on page 13 undefined on input lin
e 741.


Package natbib Warning: Citation `BaLaMa00' on page 13 undefined on input line 
744.


Package natbib Warning: Citation `KuDzEk06' on page 13 undefined on input line 
748.


Package natbib Warning: Citation `EUCrust07' on page 13 undefined on input line
 769.


Package natbib Warning: Citation `KoTr02b' on page 13 undefined on input line 7
74.

[13]

Package natbib Warning: Citation `DaTr98' on page 14 undefined on input line 78
2.


Package natbib Warning: Citation `DaTr98' on page 14 undefined on input line 78
4.


Package natbib Warning: Citation `Etopo5' on page 14 undefined on input line 79
5.


Package natbib Warning: Citation `KoTr02b' on page 14 undefined on input line 7
98.


Package natbib Warning: Citation `DaTr98' on page 14 undefined on input line 79
8.


Package natbib Warning: Citation `KoTr99' on page 14 undefined on input line 80
8.


Package natbib Warning: Citation `KoTr02a' on page 14 undefined on input line 8
08.

[14]
Overfull \hbox (1.65381pt too wide) in paragraph at lines 881--894
\T1/ptm/m/n/10 pa-ram-e-ters \T1/pcr/m/n/10 OUTPUT_SEISMOS_ASCII_TEXT\T1/ptm/m/
n/10 , \T1/pcr/m/n/10 OUTPUT_SEISMOS_SAC_ALPHANUM \T1/ptm/m/n/10 and \T1/pcr/m/
n/10 OUTPUT_SEI- 
 []

[15] [16]
Underfull \vbox (badness 10000) detected at line 981
 []

[17

] [18]

Package longtable Warning: Column widths have changed
(longtable)                in table 3.1 on input line 1200.

[19]

Package natbib Warning: Citation `KoTr02a' on page 20 undefined on input line 1
273.


Package natbib Warning: Citation `KoTr02b' on page 20 undefined on input line 1
274.


Package natbib Warning: Citation `KoTr02a' on page 20 undefined on input line 1
275.


Package natbib Warning: Citation `KoTr02b' on page 20 undefined on input line 1
276.


Package natbib Warning: Citation `ChVa04' on page 20 undefined on input line 12
77.

[20]
Chapter 4.
<figures/Denali_CMT.pdf, id=520, 529.98pt x 238.8925pt>
File: figures/Denali_CMT.pdf Graphic file (type pdf)
<use figures/Denali_CMT.pdf>
Package pdftex.def Info: figures/Denali_CMT.pdf  used on input line 1349.
(pdftex.def)             Requested size: 469.75502pt x 211.74608pt.

Overfull \hbox (1.90002pt too wide) in paragraph at lines 1348--1350
  [] 
 []

[21

]

Package natbib Warning: Citation `KoTr02a' on page 22 undefined on input line 1
372.


Package natbib Warning: Citation `KoTr02a' on page 22 undefined on input line 1
377.


Overfull \hbox (49.18324pt too wide) in paragraph at lines 1366--1386
\T1/pcr/m/n/10 process_syn.pl \T1/ptm/m/n/10 (see Sec-tion []11.2.2[]) with the
 \T1/pcr/m/n/10 -h \T1/ptm/m/n/10 flag, or the se-rial code \T1/pcr/m/n/10 conv
olve_source_timefunction.f90
 []


Overfull \hbox (1.99313pt too wide) in paragraph at lines 1390--1392
\T1/ptm/m/n/10 to com-pile the code and then set the pa-ram-e-ter \T1/pcr/m/n/1
0 hdur \T1/ptm/m/n/10 in \T1/pcr/m/n/10 UTILS/convolve_source_timefunction.csh
 []

<figures/gauss_vs_triangle_mod.pdf, id=530, 449.10641pt x 406.66214pt>
File: figures/gauss_vs_triangle_mod.pdf Graphic file (type pdf)
<use figures/gauss_vs_triangle_mod.pdf>
Package pdftex.def Info: figures/gauss_vs_triangle_mod.pdf  used on input line 
1411.
(pdftex.def)             Requested size: 216.81pt x 196.31873pt.

Package natbib Warning: Citation `AkRi80' on page 22 undefined on input line 14
19.


Package natbib Warning: Citation `AkRi80' on page 22 undefined on input line 14
20.

[22 <./figures/Denali_CMT.pdf>]

Package natbib Warning: Citation `DaTr98' on page 23 undefined on input line 14
24.

<figures/source_timing.pdf, id=551, 441.65pt x 228.855pt>
File: figures/source_timing.pdf Graphic file (type pdf)
<use figures/source_timing.pdf>
Package pdftex.def Info: figures/source_timing.pdf  used on input line 1457.
(pdftex.def)             Requested size: 361.34999pt x 187.25374pt.
[23 <./figures/gauss_vs_triangle_mod.pdf>]
<figures/STATIONS_global_explained.pdf, id=601, 346.29375pt x 192.72pt>
File: figures/STATIONS_global_explained.pdf Graphic file (type pdf)
<use figures/STATIONS_global_explained.pdf>
Package pdftex.def Info: figures/STATIONS_global_explained.pdf  used on input l
ine 1480.
(pdftex.def)             Requested size: 346.2929pt x 192.71951pt.

Underfull \hbox (badness 5954) in paragraph at lines 1488--1488
[]\T1/ptm/m/n/10 Figure 4.4: []Sample \T1/pcr/m/n/10 STATIONS \T1/ptm/m/n/10 fi
le. Sta-tion lat-i-tude and lon-gi-tude should be pro-vided in ge-o-
 []


Underfull \hbox (badness 4441) in paragraph at lines 1488--1488
\T1/ptm/m/n/10 graph-i-cal co-or-di-nates. The width of the sta-tion la-bel sho
uld be no more than 32 char-ac-ters (see
 []


Overfull \hbox (6.84456pt too wide) in paragraph at lines 1496--1496
\T1/pcr/m/n/9 Station Network Latitude (degrees) Longitude (degrees) Elevation 
(m) burial (m)  
 []

[24 <./figures/source_timing.pdf> <./figures/STATIONS_global_explained.pdf>]
Overfull \hbox (20.21173pt too wide) in paragraph at lines 1515--1518
[]\T1/ptm/m/n/10 While the solver is run-ning, its progress may be tracked by m
on-i-tor-ing the `\T1/pcr/m/n/10 timestamp*\T1/ptm/m/n/10 ' files in the \T1/pc
r/m/n/10 OUTPUT_FILES
 []


Overfull \hbox (0.24504pt too wide) in paragraph at lines 1530--1531
[]\T1/pcr/m/n/10 Max norm displacement vector U in solid in all slices (m) =   
 1.9325   
 []


Overfull \hbox (30.24504pt too wide) in paragraph at lines 1532--1533
[]\T1/pcr/m/n/10 Max non-dimensional potential Ufluid in fluid in all slices = 
1.1058885E-22  
 []


Overfull \hbox (2.64157pt too wide) in paragraph at lines 1534--1553
\T1/ptm/m/n/10 the run will be ter-mi-nated by the pro-gram when ei-ther of the
se val-ues be-comes greater than \T1/pcr/m/n/10 STABILITY_THRESHOLD
 []

[25]
Chapter 5.

Package natbib Warning: Citation `KoTr99' on page 26 undefined on input line 15
91.


Package natbib Warning: Citation `ChTrHeKa07' on page 26 undefined on input lin
e 1594.

[26

]
<figures/fig5a.jpg, id=628, 583.2189pt x 588.2778pt>
File: figures/fig5a.jpg Graphic file (type jpg)
<use figures/fig5a.jpg>
Package pdftex.def Info: figures/fig5a.jpg  used on input line 1657.
(pdftex.def)             Requested size: 379.0878pt x 382.37604pt.


Package natbib Warning: Citation `RiVa00' on page 27 undefined on input line 16
68.


Package natbib Warning: Citation `RiVa00' on page 27 undefined on input line 16
68.

<figures/fig5b.jpg, id=631, 583.2189pt x 588.2778pt>
File: figures/fig5b.jpg Graphic file (type jpg)
<use figures/fig5b.jpg>
Package pdftex.def Info: figures/fig5b.jpg  used on input line 1674.
(pdftex.def)             Requested size: 379.0878pt x 382.37604pt.

Package natbib Warning: Citation `KoTr02a' on page 27 undefined on input line 1
682.


Package natbib Warning: Citation `KoTr02b' on page 27 undefined on input line 1
682.


Package natbib Warning: Citation `KoTr02a' on page 27 undefined on input line 1
682.


Package natbib Warning: Citation `KoTr02b' on page 27 undefined on input line 1
682.

[27 <./figures/fig5a.jpg>]

Package natbib Warning: Citation `KoTr99' on page 28 undefined on input line 16
89.


Overfull \hbox (28.24272pt too wide) in paragraph at lines 1711--1714
\T1/ptm/m/n/10 where $\OML/cmm/m/it/10 W[]$ \T1/ptm/m/n/10 is the op-ti-mal wid
th in fre-quency for 3 Stan-dard Lin-ear Solids, about 1.75. See \T1/pcr/m/n/9 
read_compute_parameters.f90
 []


Package natbib Warning: Citation `KoTr02a' on page 28 undefined on input line 1
716.

[28 <./figures/fig5b.jpg>]
<figures/2-chunk-surface.pdf, id=646, 458.71375pt x 479.7925pt>
File: figures/2-chunk-surface.pdf Graphic file (type pdf)
<use figures/2-chunk-surface.pdf>
Package pdftex.def Info: figures/2-chunk-surface.pdf  used on input line 1753.
(pdftex.def)             Requested size: 281.85587pt x 294.81804pt.
 [29 <./figures/2-chunk-surface.pdf>]
Chapter 6.

Package natbib Warning: Citation `LayKanamoriAmmon2005' on page 30 undefined on
 input line 1770.


Package natbib Warning: Citation `AmmonJiThio2005' on page 30 undefined on inpu
t line 1770.


Package natbib Warning: Citation `ParkSongTromp2005' on page 30 undefined on in
put line 1770.


Package natbib Warning: Citation `TrTaLi05' on page 30 undefined on input line 
1773.


Package natbib Warning: Citation `LiTr06' on page 30 undefined on input line 17
73.


Package natbib Warning: Citation `TrKoLi08' on page 30 undefined on input line 
1773.


Package natbib Warning: Citation `LiTr08' on page 30 undefined on input line 17
73.

[30

]
Overfull \hbox (6.18321pt too wide) in paragraph at lines 1835--1841
\T1/ptm/m/n/10 In the \T1/pcr/m/n/10 DATA/Par_file\T1/ptm/m/n/10 , set the two 
re-lated pa-ram-e-ters to be \T1/pcr/m/n/10 SIMULATION_TYPE = 2 \T1/ptm/m/n/10 
and \T1/pcr/m/n/10 SAVE_FORWARD
 []


Package natbib Warning: Citation `LiTr06' on page 31 undefined on input line 18
66.


Package natbib Warning: Citation `TrKoLi08' on page 31 undefined on input line 
1866.


Overfull \hbox (10.64494pt too wide) in paragraph at lines 1916--1917
\T1/pcr/m/n/10 xcreate_adjsrc_traveltime t1 t2 ifile[0-5] E/N/Z-ascii-files [ba
z]  
 []

[31]
Overfull \hbox (10.64494pt too wide) in paragraph at lines 1930--1931
\T1/pcr/m/n/10 xcreate_adjsrc_amplitude t1 t2 ifile[0-5] E/N/Z-ascii-files [baz
].  
 []


Package natbib Warning: Citation `TrTaLi05' on page 32 undefined on input line 
1977.


Package natbib Warning: Citation `ChTr07' on page 32 undefined on input line 19
91.

[32] [33]
Chapter 7.

Package natbib Warning: Citation `trompetal2010' on page 34 undefined on input 
line 2023.


Underfull \hbox (badness 10000) in paragraph at lines 2028--2030

 []


Overfull \hbox (24.47076pt too wide) in paragraph at lines 2031--2035
\T1/ptm/m/n/10 noise sim-u-la-tions, it is crit-i-cal to have no earth-quakes. 
In other words, the mo-ment ten-sor spec-i-fied in \T1/pcr/m/n/10 DATA/CMTSOLUT
ION
 []


Underfull \hbox (badness 10000) in paragraph at lines 2031--2035

 []


Underfull \hbox (badness 10000) in paragraph at lines 2036--2043

 []


Package natbib Warning: Citation `trompetal2010' on page 34 undefined on input 
line 2050.


Underfull \hbox (badness 10000) in paragraph at lines 2044--2051

 []


Underfull \hbox (badness 10000) in paragraph at lines 2052--2057

 []


Overfull \hbox (32.42215pt too wide) in paragraph at lines 2058--2069
[]\T1/ptm/m/n/10 There are other pa-ram-e-ters in \T1/pcr/m/n/10 DATA/Par_file 
\T1/ptm/m/n/10 which should be given spe-cific val-ues. For in-stance, \T1/pcr/
m/n/10 NUMBER_OF_RUNS
 []


Overfull \hbox (29.95398pt too wide) in paragraph at lines 2058--2069
\T1/ptm/m/n/10 and \T1/pcr/m/n/10 NUMBER_OF_THIS_RUN \T1/ptm/m/n/10 must be 1; 
\T1/pcr/m/n/10 ROTATE_SEISMOGRAMS_RT\T1/ptm/m/n/10 , \T1/pcr/m/n/10 SAVE_ALL_SE
ISMOGRAMS_IN_ONE_FILES\T1/ptm/m/n/10 ,
 []


Overfull \hbox (12.66177pt too wide) in paragraph at lines 2058--2069
\T1/ptm/m/n/10 sim-u-la-tions, there-fore we need to set \T1/pcr/m/n/10 SAVE_FO
RWARD \T1/ptm/m/n/10 to \T1/pcr/m/n/10 .true. \T1/ptm/m/n/10 for the sec-ond st
ep, i.e., when \T1/pcr/m/n/10 NOISE_TOMOGRAPHY
 []


Overfull \hbox (7.42165pt too wide) in paragraph at lines 2058--2069
\T1/ptm/m/n/10 equals 2. The third step is for ker-nel con-struc-tions. Hence \
T1/pcr/m/n/10 SIMULATION_TYPE \T1/ptm/m/n/10 should be 3, whereas \T1/pcr/m/n/1
0 SAVE_FORWARD
 []


Underfull \hbox (badness 10000) in paragraph at lines 2058--2069

 []

[34

]
Underfull \hbox (badness 10000) in paragraph at lines 2087--2088

 []


Underfull \hbox (badness 10000) in paragraph at lines 2094--2095

 []


Underfull \hbox (badness 10000) in paragraph at lines 2096--2101

 []


Underfull \hbox (badness 10000) in paragraph at lines 2107--2108

 []


Underfull \hbox (badness 10000) in paragraph at lines 2128--2129

 []


Underfull \hbox (badness 10000) in paragraph at lines 2137--2142

 []

[35]

Package natbib Warning: Citation `trompetal2010' on page 36 undefined on input 
line 2174.


Package natbib Warning: Citation `trompetal2010' on page 36 undefined on input 
line 2190.


Underfull \hbox (badness 10000) in paragraph at lines 2217--2219

 []

[36]
Underfull \hbox (badness 10000) in paragraph at lines 2222--2227

 []


Underfull \hbox (badness 10000) in paragraph at lines 2228--2230

 []


Overfull \hbox (42.94223pt too wide) in paragraph at lines 2231--2238
\T1/ptm/m/n/10 Step 3 will over-write them. Note that we have a `mas-ter' re-ce
iver spec-i-fied by \T1/pcr/m/n/10 NOISE_TOMOGRAPHY/irec_master_noise\T1/ptm/m/
n/10 ,
 []


Underfull \hbox (badness 10000) in paragraph at lines 2231--2238

 []


Underfull \hbox (badness 10000) in paragraph at lines 2239--2242

 []


Package natbib Warning: Citation `trompetal2010' on page 37 undefined on input 
line 2244.


Overfull \hbox (11.20172pt too wide) in paragraph at lines 2248--2252
\T1/ptm/m/n/10 In or-der to il-lus-trate noise sim-u-la-tions in an easy way, t
hree ex-am-ples are pro-vided in \T1/pcr/m/n/10 EXAMPLES/noise_examples/\T1/ptm
/m/n/10 .
 []


Underfull \hbox (badness 10000) in paragraph at lines 2253--2254

 []


Underfull \hbox (badness 10000) in paragraph at lines 2259--2260

 []

[37]
Chapter 8.
<figures/geo-poster4_small.pdf, id=720, 493.845pt x 493.845pt>
File: figures/geo-poster4_small.pdf Graphic file (type pdf)
<use figures/geo-poster4_small.pdf>
Package pdftex.def Info: figures/geo-poster4_small.pdf  used on input line 2337
.
(pdftex.def)             Requested size: 370.38283pt x 370.38283pt.
[38

] [39 <./figures/geo-poster4_small.pdf>]
Overfull \hbox (17.51155pt too wide) in paragraph at lines 2398--2404
[]\T1/ptm/m/n/10 A util-ity pro-gram to com-bine the files pro-duced by \T1/pcr
/m/n/9 MOVIE_VOLUME_TYPE = 1,2,3 \T1/ptm/m/n/10 is pro-vided in \T1/pcr/m/n/9 c
ombine_paraview 
 []


Overfull \hbox (21.1431pt too wide) in paragraph at lines 2398--2404
\T1/pcr/m/n/9 _strain_data.f90\T1/ptm/m/n/10 . Type \T1/pcr/m/n/9 xcombine_para
view_strain_data \T1/ptm/m/n/10 to get the us-age state-ment. The pro-gram \T1/
pcr/m/n/9 combine_vol 
 []


Overfull \hbox (25.04448pt too wide) in paragraph at lines 2471--2471
\T1/pcr/m/n/9 copy_m(oc,ic)_globe_database.pl slice_file lsf_machine_file filen
ame [jobid]  
 []

[40]
Overfull \hbox (3.4445pt too wide) in paragraph at lines 2482--2482
\T1/pcr/m/n/9 copy_surf_globe_database.pl slice_file lsf_machine_file filename 
[jobid]  
 []


Overfull \hbox (1.65387pt too wide) in paragraph at lines 2484--2486
\T1/ptm/m/n/10 where the file-name can be \T1/pcr/m/n/9 Moho_kernel\T1/ptm/m/n/
10 , \T1/pcr/m/n/9 d400_kernel\T1/ptm/m/n/10 , \T1/pcr/m/n/9 d670_kernel\T1/ptm
/m/n/10 , \T1/pcr/m/n/9 CMB_kernel \T1/ptm/m/n/10 and \T1/pcr/m/n/9 ICB_kernel\
T1/ptm/m/n/10 . 
 []


Overfull \hbox (69.4452pt too wide) in paragraph at lines 2504--2507
[]\T1/pcr/m/n/8 ./bin/xcombine_vol_data slice_list kernel_filename  input_topo_
dir  input_file_dir output_dir  
 []

LaTeX Font Info:    Trying to load font information for T1+phv on input line 25
66.
(/usr/share/texlive/texmf-dist/tex/latex/psnfss/t1phv.fd
File: t1phv.fd 2001/06/04 scalable font definitions for T1/phv.
) [41]
<figures/P_alpha_60d_17s.pdf, id=767, 245.91875pt x 282.05376pt>
File: figures/P_alpha_60d_17s.pdf Graphic file (type pdf)
<use figures/P_alpha_60d_17s.pdf>
Package pdftex.def Info: figures/P_alpha_60d_17s.pdf  used on input line 2597.
(pdftex.def)             Requested size: 295.10101pt x 338.4628pt.
 [42 <./figures/P_alpha_60d_17s.pdf>]
Chapter 9.

Overfull \hbox (0.10127pt too wide) in paragraph at lines 2636--2645
\T1/pcr/m/n/9 .bash\T1/ptm/m/n/10 , which con-tains the in-struc-tions that mak
e up the job it-self. These scripts can be found in \T1/pcr/m/n/9 UTILS/Cluster
/lsf
 []

[43

]
Overfull \hbox (12.24504pt too wide) in paragraph at lines 2748--2749
[]\T1/pcr/m/n/10 ./remap_lsf_machines.pl OUTPUT_FILES/lsf_machines >OUTPUT_FILE
S/machines  
 []

[44]
Overfull \hbox (65.5231pt too wide) in paragraph at lines 2777--2784
\T1/pcr/m/n/10 .kernel \T1/ptm/m/n/10 pro-vided in \T1/pcr/m/n/10 UTILS/Cluster
 \T1/ptm/m/n/10 di-rec-tory, and mod-ify the command-line ar-gu-ments of \T1/pc
r/m/n/10 xcreate_adjsrc_traveltime
 []

[45]
Chapter 10.

Package natbib Warning: Citation `BaLaMa00' on page 46 undefined on input line 
2797.


Overfull \hbox (12.24504pt too wide) in paragraph at lines 2808--2809
\T1/pcr/m/n/10 call model_crust(lat,lon,r,vp,vs,rho,moho,foundcrust,CM_V,elem_i
n_crust)  
 []

[46

]
Overfull \hbox (2.4429pt too wide) in paragraph at lines 2857--2869
\T1/pcr/m/n/10 MPI_BCAST \T1/ptm/m/n/10 in the sub-rou-tine \T1/pcr/m/n/10 mode
l_crust_broadcast \T1/ptm/m/n/10 af-ter the call to the \T1/pcr/m/n/10 read_cru
st_model
 []


Package natbib Warning: Citation `RiVaWo99' on page 47 undefined on input line 
2910.

[47]
Overfull \hbox (14.4429pt too wide) in paragraph at lines 2963--2975
\T1/pcr/m/n/10 MPI_BCAST \T1/ptm/m/n/10 in the sub-rou-tine \T1/pcr/m/n/10 mode
l_s20rts_broadcast \T1/ptm/m/n/10 af-ter the call to the \T1/pcr/m/n/10 read_mo
del_s20rts
 []

[48]
Overfull \hbox (36.79274pt too wide) in paragraph at lines 3065--3077
\T1/ptm/m/n/10 calls to \T1/pcr/m/n/10 MPI_BCAST \T1/ptm/m/n/10 in file \T1/pcr
/m/n/10 model_aniso_mantle.f90 \T1/ptm/m/n/10 af-ter the call to the \T1/pcr/m/
n/10 read_aniso_mantle_model
 []

[49]
Overfull \hbox (36.24504pt too wide) in paragraph at lines 3133--3134
\T1/pcr/m/n/10 call model_atten3D(radius, colatitude, longitude, Qmu, QRFSI12_Q
, idoubling)  
 []


Package natbib Warning: Citation `DaEkDz08' on page 50 undefined on input line 
3150.

[50]
Chapter 11.

Overfull \hbox (10.07106pt too wide) in paragraph at lines 3204--3205
[]\T1/ptm/m/n/10 Convolve syn-thetic seis-mo-grams with a source time func-tion
 with the half du-ra-tion spec-i-fied in the \T1/pcr/m/n/10 CMTSOLUTION
 []

[51

]
Overfull \hbox (36.24533pt too wide) in paragraph at lines 3223--3223
\T1/pcr/m/n/8 process_data.pl -m CMTSOLUTION -s 1.0 -l 0/4000 -i -f -t 40/500 -
p -x bp DATA/1999.330*.LH?.SAC  
 []


Overfull \hbox (45.84534pt too wide) in paragraph at lines 3243--3243
\T1/pcr/m/n/8 process_syn.pl -m CMTSOLUTION -h -a STATIONS -s 1.0 -l 0/4000 -f 
-t 40/500 -p -x bp SEM/*.MX?.sem  
 []

[52] [53] [54

] [55

]
Underfull \hbox (badness 10000) in paragraph at lines 3352--3355

 []


Underfull \hbox (badness 10000) in paragraph at lines 3356--3357

 []


Underfull \hbox (badness 10000) in paragraph at lines 3358--3360

 []


Underfull \hbox (badness 10000) in paragraph at lines 3361--3365

 []


Underfull \hbox (badness 10000) in paragraph at lines 3366--3371

 []


Underfull \hbox (badness 10000) in paragraph at lines 3372--3379

 []


Underfull \hbox (badness 10000) in paragraph at lines 3380--3386

 []


Underfull \hbox (badness 10000) in paragraph at lines 3387--3390

 []


Underfull \hbox (badness 10000) in paragraph at lines 3391--3393

 []


Underfull \hbox (badness 10000) in paragraph at lines 3394--3396

 []


Underfull \hbox (badness 10000) in paragraph at lines 3397--3399

 []


Underfull \hbox (badness 10000) in paragraph at lines 3400--3402

 []

[56

]
Underfull \hbox (badness 10000) in paragraph at lines 3403--3405

 []


Underfull \hbox (badness 10000) in paragraph at lines 3406--3408

 []


Underfull \hbox (badness 10000) in paragraph at lines 3409--3411

 []


Underfull \hbox (badness 10000) in paragraph at lines 3412--3413

 []


Underfull \hbox (badness 10000) in paragraph at lines 3414--3415

 []


Underfull \hbox (badness 10000) in paragraph at lines 3416--3417

 []


Underfull \hbox (badness 10000) in paragraph at lines 3418--3420

 []

No file manual_SPECFEM3D_GLOBE.bbl.
[57]
Appendix A.

Package natbib Warning: Citation `AkRi80' on page 58 undefined on input line 34
35.

[58

]
Appendix B.
[59

]
Appendix C.

Package natbib Warning: Citation `KoTr02a' on page 60 undefined on input line 3
487.


Package natbib Warning: Citation `KoTr02b' on page 60 undefined on input line 3
487.


Package natbib Warning: Citation `DzAn81' on page 60 undefined on input line 34
93.

Package epstopdf Info: Source file: <figures/vanuatu_vertical.eps>
(epstopdf)                    date: 2021-01-25 17:27:37
(epstopdf)                    size: 700381 bytes
(epstopdf)             Output file: <figures/vanuatu_vertical-eps-converted-to.
pdf>
(epstopdf)             Command: <repstopdf --outfile=figures/vanuatu_vertical-e
ps-converted-to.pdf figures/vanuatu_vertical.eps>
(epstopdf)             \includegraphics on input line 3505.
runsystem(repstopdf --outfile=figures/vanuatu_vertical-eps-converted-to.pdf fig
ures/vanuatu_vertical.eps)...executed safely (allowed).

Package epstopdf Info: Result file: <figures/vanuatu_vertical-eps-converted-to.
pdf>.

! Package pdftex.def Error: File `figures/vanuatu_vertical-eps-converted-to.pdf
' not found: using draft setting.

See the pdftex.def package documentation for explanation.
Type  H <return>  for immediate help.
 ...                                              
                                                  
l.3505 ...cale=0.75]{figures/vanuatu_vertical.eps}
                                                  \caption{\label{fig:Vanuat...

Try typing  <return>  to proceed.
If that doesn't work, type  X <return>  to quit.

Package epstopdf Info: Source file: <figures/vanuatu_trans.eps>
(epstopdf)                    date: 2021-01-25 17:27:37
(epstopdf)                    size: 683434 bytes
(epstopdf)             Output file: <figures/vanuatu_trans-eps-converted-to.pdf
>
(epstopdf)             Command: <repstopdf --outfile=figures/vanuatu_trans-eps-
converted-to.pdf figures/vanuatu_trans.eps>
(epstopdf)             \includegraphics on input line 3518.
runsystem(repstopdf --outfile=figures/vanuatu_trans-eps-converted-to.pdf figure
s/vanuatu_trans.eps)...executed safely (allowed).

Package epstopdf Info: Result file: <figures/vanuatu_trans-eps-converted-to.pdf
>.

! Package pdftex.def Error: File `figures/vanuatu_trans-eps-converted-to.pdf' n
ot found: using draft setting.

See the pdftex.def package documentation for explanation.
Type  H <return>  for immediate help.
 ...                                              
                                                  
l.3518 ...s[scale=0.75]{figures/vanuatu_trans.eps}
                                                  \caption{\label{fig:Vanuat...

Try typing  <return>  to proceed.
If that doesn't work, type  X <return>  to quit.

Package epstopdf Info: Source file: <figures/bolivia_vertical.eps>
(epstopdf)                    date: 2021-01-25 17:27:36
(epstopdf)                    size: 653880 bytes
(epstopdf)             Output file: <figures/bolivia_vertical-eps-converted-to.
pdf>
(epstopdf)             Command: <repstopdf --outfile=figures/bolivia_vertical-e
ps-converted-to.pdf figures/bolivia_vertical.eps>
(epstopdf)             \includegraphics on input line 3526.
runsystem(repstopdf --outfile=figures/bolivia_vertical-eps-converted-to.pdf fig
ures/bolivia_vertical.eps)...executed safely (allowed).

Package epstopdf Info: Result file: <figures/bolivia_vertical-eps-converted-to.
pdf>.

! Package pdftex.def Error: File `figures/bolivia_vertical-eps-converted-to.pdf
' not found: using draft setting.

See the pdftex.def package documentation for explanation.
Type  H <return>  for immediate help.
 ...                                              
                                                  
l.3526 ...cale=0.75]{figures/bolivia_vertical.eps}
                                                  \caption{\label{fig:Bolivi...

Try typing  <return>  to proceed.
If that doesn't work, type  X <return>  to quit.

Package epstopdf Info: Source file: <figures/bolivia_trans.eps>
(epstopdf)                    date: 2021-01-25 17:27:36
(epstopdf)                    size: 575493 bytes
(epstopdf)             Output file: <figures/bolivia_trans-eps-converted-to.pdf
>
(epstopdf)             Command: <repstopdf --outfile=figures/bolivia_trans-eps-
converted-to.pdf figures/bolivia_trans.eps>
(epstopdf)             \includegraphics on input line 3539.
runsystem(repstopdf --outfile=figures/bolivia_trans-eps-converted-to.pdf figure
s/bolivia_trans.eps)...executed safely (allowed).

Package epstopdf Info: Result file: <figures/bolivia_trans-eps-converted-to.pdf
>.

! Package pdftex.def Error: File `figures/bolivia_trans-eps-converted-to.pdf' n
ot found: using draft setting.

See the pdftex.def package documentation for explanation.
Type  H <return>  for immediate help.
 ...                                              
                                                  
l.3539 ...s[scale=0.75]{figures/bolivia_trans.eps}
                                                  \caption{\label{fig:Bolivi...

Try typing  <return>  to proceed.
If that doesn't work, type  X <return>  to quit.

Package epstopdf Info: Source file: <figures/PKPdf_all_15s500s.eps>
(epstopdf)                    date: 2021-01-25 17:27:36
(epstopdf)                    size: 819805 bytes
(epstopdf)             Output file: <figures/PKPdf_all_15s500s-eps-converted-to
.pdf>
(epstopdf)             Command: <repstopdf --outfile=figures/PKPdf_all_15s500s-
eps-converted-to.pdf figures/PKPdf_all_15s500s.eps>
(epstopdf)             \includegraphics on input line 3549.
runsystem(repstopdf --outfile=figures/PKPdf_all_15s500s-eps-converted-to.pdf fi
gures/PKPdf_all_15s500s.eps)...executed safely (allowed).

Package epstopdf Info: Result file: <figures/PKPdf_all_15s500s-eps-converted-to
.pdf>.

! Package pdftex.def Error: File `figures/PKPdf_all_15s500s-eps-converted-to.pd
f' not found: using draft setting.

See the pdftex.def package documentation for explanation.
Type  H <return>  for immediate help.
 ...                                              
                                                  
l.3549 ...ale=0.75]{figures/PKPdf_all_15s500s.eps}
                                                  \caption{\label{fig:Bolivi...

Try typing  <return>  to proceed.
If that doesn't work, type  X <return>  to quit.


Package natbib Warning: Citation `KoTr02a' on page 60 undefined on input line 3
552.


Package natbib Warning: Citation `KoTr02a' on page 60 undefined on input line 3
552.


Package natbib Warning: Citation `DaTr98' on page 60 undefined on input line 35
61.

[60

] [61]
Appendix D.
<figures/headers_sem_explained.pdf, id=912, 614.295pt x 794.97pt>
File: figures/headers_sem_explained.pdf Graphic file (type pdf)
<use figures/headers_sem_explained.pdf>
Package pdftex.def Info: figures/headers_sem_explained.pdf  used on input line 
3597.
(pdftex.def)             Requested size: 491.43666pt x 635.97687pt.

Overfull \hbox (23.58167pt too wide) in paragraph at lines 3596--3597
  [] 
 []


LaTeX Warning: Float too large for page by 9.71178pt on input line 3600.

[62

] [63 <./figures/headers_sem_explained.pdf>]
Appendix E.

Underfull \hbox (badness 10000) in paragraph at lines 3604--3605

 []


Underfull \hbox (badness 10000) in paragraph at lines 3606--3608

 []

Package epstopdf Info: Source file: <figures/IRIS_band_codes.eps>
(epstopdf)                    date: 2021-01-25 17:27:36
(epstopdf)                    size: 169444 bytes
(epstopdf)             Output file: <figures/IRIS_band_codes-eps-converted-to.p
df>
(epstopdf)             Command: <repstopdf --outfile=figures/IRIS_band_codes-ep
s-converted-to.pdf figures/IRIS_band_codes.eps>
(epstopdf)             \includegraphics on input line 3611.
runsystem(repstopdf --outfile=figures/IRIS_band_codes-eps-converted-to.pdf figu
res/IRIS_band_codes.eps)...executed safely (allowed).

Package epstopdf Info: Result file: <figures/IRIS_band_codes-eps-converted-to.p
df>.

! Package pdftex.def Error: File `figures/IRIS_band_codes-eps-converted-to.pdf'
 not found: using draft setting.

See the pdftex.def package documentation for explanation.
Type  H <return>  for immediate help.
 ...                                              
                                                  
l.3611 ...[scale=0.6]{figures/IRIS_band_codes.eps}
                                                  \caption{\label{fig:IRIS_b...

Try typing  <return>  to proceed.
If that doesn't work, type  X <return>  to quit.


Underfull \hbox (badness 10000) in paragraph at lines 3615--3616

 []


Underfull \hbox (badness 10000) in paragraph at lines 3617--3618

 []

[64

] [65]
Appendix F.
[66

] [67]
Appendix G.

Underfull \hbox (badness 10000) in paragraph at lines 3808--3824

 []

[68

] [69] [70] [71]

Package natbib Warning: There were undefined citations.


Package longtable Warning: Table widths have changed. Rerun LaTeX.

Package atveryend Info: Empty hook `BeforeClearDocument' on input line 4097.
[72]
Package atveryend Info: Empty hook `AfterLastShipout' on input line 4097.
 (./manual_SPECFEM3D_GLOBE.aux)
Package atveryend Info: Executing hook `AtVeryEndDocument' on input line 4097.
Package atveryend Info: Executing hook `AtEndAfterFileList' on input line 4097.

Package rerunfilecheck Info: File `manual_SPECFEM3D_GLOBE.out' has not changed.

(rerunfilecheck)             Checksum: 8AB84F0D6320F94D455641FF0AFFFFAB;4165.


LaTeX Warning: Label(s) may have changed. Rerun to get cross-references right.

Package atveryend Info: Empty hook `AtVeryVeryEnd' on input line 4097.
 ) 
Here is how much of TeX's memory you used:
 9249 strings out of 483183
 135223 string characters out of 5966292
 503944 words of memory out of 5000000
 23765 multiletter control sequences out of 15000+600000
 599958 words of font info for 120 fonts, out of 8000000 for 9000
 14 hyphenation exceptions out of 8191
 34i,14n,34p,1068b,570s stack positions out of 5000i,500n,10000p,200000b,80000s
{/usr/share/texlive/texmf-dist/fonts/enc/dvips/base/8r.enc}</usr/share/texliv
e/texmf-dist/fonts/type1/public/amsfonts/cm/cmex10.pfb></usr/share/texlive/texm
f-dist/fonts/type1/public/amsfonts/cm/cmmi10.pfb></usr/share/texlive/texmf-dist
/fonts/type1/public/amsfonts/cm/cmmi7.pfb></usr/share/texlive/texmf-dist/fonts/
type1/public/amsfonts/cm/cmr10.pfb></usr/share/texlive/texmf-dist/fonts/type1/p
ublic/amsfonts/cm/cmr5.pfb></usr/share/texlive/texmf-dist/fonts/type1/public/am
sfonts/cm/cmr7.pfb></usr/share/texlive/texmf-dist/fonts/type1/public/amsfonts/c
m/cmsy10.pfb></usr/share/texlive/texmf-dist/fonts/type1/public/amsfonts/cm/cmsy
7.pfb></usr/share/texlive/texmf-dist/fonts/type1/public/amsfonts/cm/cmtt10.pfb>
</usr/share/texlive/texmf-dist/fonts/type1/urw/courier/ucrb8a.pfb></usr/share/t
exlive/texmf-dist/fonts/type1/urw/courier/ucrr8a.pfb></usr/share/texlive/texmf-
dist/fonts/type1/urw/courier/ucrro8a.pfb></usr/share/texlive/texmf-dist/fonts/t
ype1/urw/helvetic/uhvr8a.pfb></usr/share/texlive/texmf-dist/fonts/type1/urw/tim
es/utmb8a.pfb></usr/share/texlive/texmf-dist/fonts/type1/urw/times/utmr8a.pfb><
/usr/share/texlive/texmf-dist/fonts/type1/urw/times/utmr8a.pfb></usr/share/texl
ive/texmf-dist/fonts/type1/urw/times/utmri8a.pfb>
Output written on manual_SPECFEM3D_GLOBE.pdf (74 pages, 22442795 bytes).
PDF statistics:
 1127 PDF objects out of 1200 (max. 8388607)
 926 compressed objects within 10 object streams
 234 named destinations out of 1000 (max. 500000)
 618 words of extra memory for PDF output out of 10000 (max. 10000000)

