This file contains any messages produced by compilers while
running configure, to aid debugging if configure makes a mistake.

It was created by Specfem3D_Globe configure 6.0.0, which was
generated by GNU Autoconf 2.69.  Invocation command line was

  $ ./configure FC=ifort MPIFC=mpiifort

## --------- ##
## Platform. ##
## --------- ##

hostname = malbec01
uname -m = x86_64
uname -r = 2.6.32-358.23.2.el6.x86_64
uname -s = Linux
uname -v = #1 SMP Wed Oct 16 18:37:12 UTC 2013

/usr/bin/uname -p = unknown
/bin/uname -X     = unknown

/bin/arch              = x86_64
/usr/bin/arch -k       = unknown
/usr/convex/getsysinfo = unknown
/usr/bin/hostinfo      = unknown
/bin/machine           = unknown
/usr/bin/oslevel       = unknown
/bin/universe          = unknown

PATH: /cm/shared/apps/intel/mpi/5.0.2.044/intel64/bin
PATH: /cm/shared/apps/intel/composer_xe/2015.1.133/mpirt/bin/intel64
PATH: /cm/shared/apps/intel/composer_xe/2015.1.133/bin/intel64
PATH: /cm/shared/apps/intel/composer_xe/2015.1.133/bin
PATH: /cm/shared/apps/slurm/2.5.7/sbin
PATH: /cm/shared/apps/slurm/2.5.7/bin
PATH: /cm/shared/apps/gcc/4.8.1/bin
PATH: /usr/lib64/qt-3.3/bin
PATH: /usr/local/bin
PATH: /bin
PATH: /usr/bin
PATH: /usr/local/sbin
PATH: /usr/sbin
PATH: /sbin
PATH: /sbin
PATH: /usr/sbin
PATH: /opt/dell/srvadmin/bin
PATH: /home/clouzet/bin


## ----------- ##
## Core tests. ##
## ----------- ##

configure:2614: checking build system type
configure:2628: result: x86_64-unknown-linux-gnu
configure:2648: checking host system type
configure:2661: result: x86_64-unknown-linux-gnu
configure:2913: checking for Fortran compiler version
configure:2922: ifort --version >&5
ifort (IFORT) 15.0.1 20141023
Copyright (C) 1985-2014 Intel Corporation.  All rights reserved.

configure:2933: $? = 0
configure:2922: ifort -v >&5
ifort version 15.0.1
configure:2933: $? = 0
configure:2922: ifort -V >&5
Intel(R) Fortran Intel(R) 64 Compiler XE for applications running on Intel(R) 64, Version 15.0.1.133 Build 20141023
Copyright (C) 1985-2014 Intel Corporation.  All rights reserved.

configure:2933: $? = 0
configure:2922: ifort -qversion >&5
ifort: command line warning #10006: ignoring unknown option '-qversion'
ifort: command line error: no files specified; for help type "ifort -help"
configure:2933: $? = 1
configure:2948: checking whether the Fortran compiler works
configure:2970: ifort    conftest.f  >&5
configure:2974: $? = 0
configure:3022: result: yes
configure:3025: checking for Fortran compiler default output file name
configure:3027: result: a.out
configure:3033: checking for suffix of executables
configure:3040: ifort -o conftest    conftest.f  >&5
configure:3044: $? = 0
configure:3066: result: 
configure:3082: checking whether we are cross compiling
configure:3090: ifort -o conftest    conftest.f  >&5
configure:3094: $? = 0
configure:3101: ./conftest
configure:3105: $? = 0
configure:3120: result: no
configure:3125: checking for suffix of object files
configure:3141: ifort -c   conftest.f >&5
configure:3145: $? = 0
configure:3166: result: o
configure:3174: checking whether we are using the GNU Fortran compiler
configure:3187: ifort -c   conftest.F >&5
conftest.F(3): error #5082: Syntax error, found END-OF-STATEMENT when expecting one of: ( % [ : . = =>
       choke me
---------------^
conftest.F(3): error #6218: This statement is positioned incorrectly and/or has syntax errors.
       choke me
---------------^
compilation aborted for conftest.F (code 1)
configure:3187: $? = 1
configure: failed program was:
|       program main
| #ifndef __GNUC__
|        choke me
| #endif
| 
|       end
configure:3196: result: no
configure:3202: checking whether ifort accepts -g
configure:3213: ifort -c -g  conftest.f >&5
configure:3213: $? = 0
configure:3221: result: yes
configure:3255: running /bin/sh ./flags.guess
configure:3266: checking how to get verbose linking output from ifort
configure:3276: ifort -c -g  conftest.f >&5
configure:3276: $? = 0
configure:3294: ifort -o conftest -g -v conftest.f
ifort version 15.0.1
/cm/shared/apps/intel/composer_xe/2015.1.133/bin/intel64/fortcom    -D__INTEL_COMPILER=1500 -D__INTEL_COMPILER_UPDATE=1 -D__unix__ -D__unix -D__linux__ -D__linux -D__gnu_linux__ -Dunix -Dlinux -D__ELF__ -D__x86_64 -D__x86_64__ -D__amd64 -D__amd64__ -D_MT -D__INTEL_COMPILER_BUILD_DATE=20141023 -D__INTEL_OFFLOAD -D__i686 -D__i686__ -D__pentiumpro -D__pentiumpro__ -D__pentium4 -D__pentium4__ -D__tune_pentium4__ -D__SSE2__ -D__SSE2_MATH__ -D__SSE__ -D__SSE_MATH__ -D__MMX__ -mGLOB_pack_sort_init_list -I. -I/cm/shared/apps/intel/composer_xe/2015.1.133/compiler/include/intel64 -I/cm/shared/apps/intel/composer_xe/2015.1.133/compiler/include -I/usr/local/include -I/cm/shared/apps/gcc/4.8.1/lib/gcc/x86_64-unknown-linux-gnu/4.8.1/include -I/cm/shared/apps/gcc/4.8.1/lib/gcc/x86_64-unknown-linux-gnu/4.8.1/include-fixed -I/cm/shared/apps/gcc/4.8.1/include/ -I/usr/include "-fp_modbits honor_f32_conversion" "-fp_modbits honor_f64_conversion" -O0 -g2 -simd -offload_host -mP1OPT_version=15.0-intel64 -mGLOB_diag_file=/tmp/ifortme0Bp3.diag -mGLOB_source_language=GLOB_SOURCE_LANGUAGE_F90 -mP2OPT_static_promotion -mP1OPT_print_version=FALSE -mCG_use_gas_got_workaround=F -mP2OPT_align_option_used=TRUE -mGLOB_gcc_version=481 "-mGLOB_options_string=-o conftest -g -v" -mGLOB_cxx_limited_range=FALSE -mCG_extend_parms=FALSE -mGLOB_compiler_bin_directory=/cm/shared/apps/intel/composer_xe/2015.1.133/bin/intel64 -mP3OPT_emit_line_numbers -mP2OPT_suppress_unreferenced_locals=FALSE -mGLOB_debug_target=GLOB_DEBUG_TARGET_ALL -mDEBUG_info_level=2 -mDEBUG_use_indirect_strings=TRUE -mGLOB_debug_format=GLOB_DEBUG_FORMAT_DWARF30 -mGLOB_as_output_backup_file_name=/tmp/ifort1zKwtmas_.s -mGLOB_em64t -mGLOB_instruction_tuning=0x0 -mGLOB_product_id_code=0x22006d8f -mGLOB_maintain_errno -mGLOB_noinline_intrinsics -mGLOB_use_base_pointer -mCG_bnl_movbe=T -mGLOB_extended_instructions=0x8 -mP3OPT_use_mspp_call_convention -mP2OPT_subs_out_of_bound=FALSE -mGLOB_ansi_alias -mIPOPT_ninl_limit=0 -mIPOPT_ninl_user_level=0 -mPGOPTI_value_profile_use=T -mGLOB_opt_report_use_source_name -mP2OPT_gen_linux_const_pooling=FALSE -mP2OPT_il0_array_sections=TRUE -mGLOB_offload_mode=1 -mP2OPT_offload_unique_var_string=ifort439018460J4TItP -mGLOB_opt_level=0 -mIPOPT_args_in_regs=0 -mP2OPT_disam_assume_nonstd_intent_in=FALSE -mGLOB_imf_mapping_library=/cm/shared/apps/intel/composer_xe/2015.1.133/bin/intel64/libiml_attr.so -mIPOPT_single_file_compile_and_link=TRUE -mP2OPT_hlo_embed_loopinfo -mPGOPTI_gen_threadsafe_level=0 -mIPOPT_obj_output_file_name=/tmp/ifortme0Bp3.o -mIPOPT_whole_archive_fixup_file_name=/tmp/ifortwarchbzy6xF -mGLOB_linker_version=2.20.51.0.2 -mGLOB_long_size_64 -mGLOB_routine_pointer_size_64 -mGLOB_driver_tempfile_name=/tmp/iforttempfileJefy5j -mP3OPT_asm_target=P3OPT_ASM_TARGET_GAS -mGLOB_async_unwind_tables=TRUE -mGLOB_obj_output_file=/tmp/ifortme0Bp3.o -mGLOB_source_dialect=GLOB_SOURCE_DIALECT_FORTRAN -mP1OPT_source_file_name=conftest.f -mP2OPT_symtab_type_copy=true conftest.f
#include "..." search starts here:
#include <...> search starts here:
 .
 /cm/shared/apps/intel/composer_xe/2015.1.133/compiler/include/intel64
 /cm/shared/apps/intel/composer_xe/2015.1.133/compiler/include
 /usr/local/include
 /cm/shared/apps/gcc/4.8.1/lib/gcc/x86_64-unknown-linux-gnu/4.8.1/include
 /cm/shared/apps/gcc/4.8.1/lib/gcc/x86_64-unknown-linux-gnu/4.8.1/include-fixed
 /cm/shared/apps/gcc/4.8.1/include/
 /usr/include
End of search list.
ld    /usr/lib/../lib64/crt1.o /usr/lib/../lib64/crti.o /cm/shared/apps/gcc/4.8.1/lib/gcc/x86_64-unknown-linux-gnu/4.8.1/crtbegin.o --eh-frame-hdr --build-id -dynamic-linker /lib64/ld-linux-x86-64.so.2 -m elf_x86_64 -o conftest /cm/shared/apps/intel/composer_xe/2015.1.133/compiler/lib/intel64/for_main.o -L/cm/shared/apps/intel/composer_xe/2015.1.133/mkl/lib/intel64 -L/cm/shared/apps/intel/mpi/5.0.2.044/intel64/lib -L/cm/shared/apps/intel/composer_xe/2015.1.133/compiler/lib/intel64 -L/cm/shared/apps/intel/composer_xe/2015.1.133/mpirt/lib/intel64 -L/cm/shared/apps/intel/composer_xe/2015.1.133/compiler/lib/intel64 -L/cm/shared/apps/gcc/4.8.1/lib/gcc/x86_64-unknown-linux-gnu/4.8.1/ -L/cm/shared/apps/gcc/4.8.1/lib/gcc/x86_64-unknown-linux-gnu/4.8.1/../../../../lib64 -L/cm/shared/apps/gcc/4.8.1/lib/gcc/x86_64-unknown-linux-gnu/4.8.1/../../../../lib64/ -L/lib/../lib64 -L/lib/../lib64/ -L/usr/lib/../lib64 -L/usr/lib/../lib64/ -L/cm/shared/apps/intel/composer_xe/2015.1.133/mkl/lib/intel64/ -L/cm/shared/apps/intel/mpi/5.0.2.044/intel64/lib/ -L/cm/shared/apps/intel/composer_xe/2015.1.133/compiler/lib/intel64/ -L/cm/shared/apps/intel/composer_xe/2015.1.133/mpirt/lib/intel64/ -L/cm/shared/apps/gcc/4.8.1/lib/gcc/x86_64-unknown-linux-gnu/4.8.1/../../../ -L/lib64 -L/lib/ -L/usr/lib64 -L/usr/lib /tmp/ifortme0Bp3.o -Bdynamic -Bstatic -lifport -lifcore -limf -lsvml -Bdynamic -lm -Bstatic -lipgo -lirc -Bdynamic -lpthread -Bstatic -lsvml -Bdynamic -lc -lgcc -lgcc_s -Bstatic -lirc_s -Bdynamic -ldl -lc /cm/shared/apps/gcc/4.8.1/lib/gcc/x86_64-unknown-linux-gnu/4.8.1/crtend.o /usr/lib/../lib64/crtn.o
configure:3377: result: -v
configure:3379: checking for Fortran libraries of ifort
configure:3402: ifort -o conftest -g -v conftest.f
ifort version 15.0.1
/cm/shared/apps/intel/composer_xe/2015.1.133/bin/intel64/fortcom    -D__INTEL_COMPILER=1500 -D__INTEL_COMPILER_UPDATE=1 -D__unix__ -D__unix -D__linux__ -D__linux -D__gnu_linux__ -Dunix -Dlinux -D__ELF__ -D__x86_64 -D__x86_64__ -D__amd64 -D__amd64__ -D_MT -D__INTEL_COMPILER_BUILD_DATE=20141023 -D__INTEL_OFFLOAD -D__i686 -D__i686__ -D__pentiumpro -D__pentiumpro__ -D__pentium4 -D__pentium4__ -D__tune_pentium4__ -D__SSE2__ -D__SSE2_MATH__ -D__SSE__ -D__SSE_MATH__ -D__MMX__ -mGLOB_pack_sort_init_list -I. -I/cm/shared/apps/intel/composer_xe/2015.1.133/compiler/include/intel64 -I/cm/shared/apps/intel/composer_xe/2015.1.133/compiler/include -I/usr/local/include -I/cm/shared/apps/gcc/4.8.1/lib/gcc/x86_64-unknown-linux-gnu/4.8.1/include -I/cm/shared/apps/gcc/4.8.1/lib/gcc/x86_64-unknown-linux-gnu/4.8.1/include-fixed -I/cm/shared/apps/gcc/4.8.1/include/ -I/usr/include "-fp_modbits honor_f32_conversion" "-fp_modbits honor_f64_conversion" -O0 -g2 -simd -offload_host -mP1OPT_version=15.0-intel64 -mGLOB_diag_file=/tmp/ifort6uCCvK.diag -mGLOB_source_language=GLOB_SOURCE_LANGUAGE_F90 -mP2OPT_static_promotion -mP1OPT_print_version=FALSE -mCG_use_gas_got_workaround=F -mP2OPT_align_option_used=TRUE -mGLOB_gcc_version=481 "-mGLOB_options_string=-o conftest -g -v" -mGLOB_cxx_limited_range=FALSE -mCG_extend_parms=FALSE -mGLOB_compiler_bin_directory=/cm/shared/apps/intel/composer_xe/2015.1.133/bin/intel64 -mP3OPT_emit_line_numbers -mP2OPT_suppress_unreferenced_locals=FALSE -mGLOB_debug_target=GLOB_DEBUG_TARGET_ALL -mDEBUG_info_level=2 -mDEBUG_use_indirect_strings=TRUE -mGLOB_debug_format=GLOB_DEBUG_FORMAT_DWARF30 -mGLOB_as_output_backup_file_name=/tmp/ifortTppRP5as_.s -mGLOB_em64t -mGLOB_instruction_tuning=0x0 -mGLOB_product_id_code=0x22006d8f -mGLOB_maintain_errno -mGLOB_noinline_intrinsics -mGLOB_use_base_pointer -mCG_bnl_movbe=T -mGLOB_extended_instructions=0x8 -mP3OPT_use_mspp_call_convention -mP2OPT_subs_out_of_bound=FALSE -mGLOB_ansi_alias -mIPOPT_ninl_limit=0 -mIPOPT_ninl_user_level=0 -mPGOPTI_value_profile_use=T -mGLOB_opt_report_use_source_name -mP2OPT_gen_linux_const_pooling=FALSE -mP2OPT_il0_array_sections=TRUE -mGLOB_offload_mode=1 -mP2OPT_offload_unique_var_string=ifort5306556000t2prn -mGLOB_opt_level=0 -mIPOPT_args_in_regs=0 -mP2OPT_disam_assume_nonstd_intent_in=FALSE -mGLOB_imf_mapping_library=/cm/shared/apps/intel/composer_xe/2015.1.133/bin/intel64/libiml_attr.so -mIPOPT_single_file_compile_and_link=TRUE -mP2OPT_hlo_embed_loopinfo -mPGOPTI_gen_threadsafe_level=0 -mIPOPT_obj_output_file_name=/tmp/ifort6uCCvK.o -mIPOPT_whole_archive_fixup_file_name=/tmp/ifortwarchgduFar -mGLOB_linker_version=2.20.51.0.2 -mGLOB_long_size_64 -mGLOB_routine_pointer_size_64 -mGLOB_driver_tempfile_name=/tmp/iforttempfileWK6bQ6 -mP3OPT_asm_target=P3OPT_ASM_TARGET_GAS -mGLOB_async_unwind_tables=TRUE -mGLOB_obj_output_file=/tmp/ifort6uCCvK.o -mGLOB_source_dialect=GLOB_SOURCE_DIALECT_FORTRAN -mP1OPT_source_file_name=conftest.f -mP2OPT_symtab_type_copy=true conftest.f
#include "..." search starts here:
#include <...> search starts here:
 .
 /cm/shared/apps/intel/composer_xe/2015.1.133/compiler/include/intel64
 /cm/shared/apps/intel/composer_xe/2015.1.133/compiler/include
 /usr/local/include
 /cm/shared/apps/gcc/4.8.1/lib/gcc/x86_64-unknown-linux-gnu/4.8.1/include
 /cm/shared/apps/gcc/4.8.1/lib/gcc/x86_64-unknown-linux-gnu/4.8.1/include-fixed
 /cm/shared/apps/gcc/4.8.1/include/
 /usr/include
End of search list.
ld    /usr/lib/../lib64/crt1.o /usr/lib/../lib64/crti.o /cm/shared/apps/gcc/4.8.1/lib/gcc/x86_64-unknown-linux-gnu/4.8.1/crtbegin.o --eh-frame-hdr --build-id -dynamic-linker /lib64/ld-linux-x86-64.so.2 -m elf_x86_64 -o conftest /cm/shared/apps/intel/composer_xe/2015.1.133/compiler/lib/intel64/for_main.o -L/cm/shared/apps/intel/composer_xe/2015.1.133/mkl/lib/intel64 -L/cm/shared/apps/intel/mpi/5.0.2.044/intel64/lib -L/cm/shared/apps/intel/composer_xe/2015.1.133/compiler/lib/intel64 -L/cm/shared/apps/intel/composer_xe/2015.1.133/mpirt/lib/intel64 -L/cm/shared/apps/intel/composer_xe/2015.1.133/compiler/lib/intel64 -L/cm/shared/apps/gcc/4.8.1/lib/gcc/x86_64-unknown-linux-gnu/4.8.1/ -L/cm/shared/apps/gcc/4.8.1/lib/gcc/x86_64-unknown-linux-gnu/4.8.1/../../../../lib64 -L/cm/shared/apps/gcc/4.8.1/lib/gcc/x86_64-unknown-linux-gnu/4.8.1/../../../../lib64/ -L/lib/../lib64 -L/lib/../lib64/ -L/usr/lib/../lib64 -L/usr/lib/../lib64/ -L/cm/shared/apps/intel/composer_xe/2015.1.133/mkl/lib/intel64/ -L/cm/shared/apps/intel/mpi/5.0.2.044/intel64/lib/ -L/cm/shared/apps/intel/composer_xe/2015.1.133/compiler/lib/intel64/ -L/cm/shared/apps/intel/composer_xe/2015.1.133/mpirt/lib/intel64/ -L/cm/shared/apps/gcc/4.8.1/lib/gcc/x86_64-unknown-linux-gnu/4.8.1/../../../ -L/lib64 -L/lib/ -L/usr/lib64 -L/usr/lib /tmp/ifort6uCCvK.o -Bdynamic -Bstatic -lifport -lifcore -limf -lsvml -Bdynamic -lm -Bstatic -lipgo -lirc -Bdynamic -lpthread -Bstatic -lsvml -Bdynamic -lc -lgcc -lgcc_s -Bstatic -lirc_s -Bdynamic -ldl -lc /cm/shared/apps/gcc/4.8.1/lib/gcc/x86_64-unknown-linux-gnu/4.8.1/crtend.o /usr/lib/../lib64/crtn.o
configure:3598: result:  -L/cm/shared/apps/intel/composer_xe/2015.1.133/mkl/lib/intel64 -L/cm/shared/apps/intel/mpi/5.0.2.044/intel64/lib -L/cm/shared/apps/intel/composer_xe/2015.1.133/compiler/lib/intel64 -L/cm/shared/apps/intel/composer_xe/2015.1.133/mpirt/lib/intel64 -L/cm/shared/apps/gcc/4.8.1/lib/gcc/x86_64-unknown-linux-gnu/4.8.1/ -L/cm/shared/apps/gcc/4.8.1/lib/gcc/x86_64-unknown-linux-gnu/4.8.1/../../../../lib64 -L/cm/shared/apps/gcc/4.8.1/lib/gcc/x86_64-unknown-linux-gnu/4.8.1/../../../../lib64/ -L/lib/../lib64 -L/lib/../lib64/ -L/usr/lib/../lib64 -L/usr/lib/../lib64/ -L/cm/shared/apps/intel/composer_xe/2015.1.133/mkl/lib/intel64/ -L/cm/shared/apps/intel/mpi/5.0.2.044/intel64/lib/ -L/cm/shared/apps/intel/composer_xe/2015.1.133/compiler/lib/intel64/ -L/cm/shared/apps/intel/composer_xe/2015.1.133/mpirt/lib/intel64/ -L/cm/shared/apps/gcc/4.8.1/lib/gcc/x86_64-unknown-linux-gnu/4.8.1/../../../ -L/lib64 -L/lib/ -L/usr/lib64 -L/usr/lib -lifport -lifcore -limf -lsvml -lm -lipgo -lirc -lpthread -lirc_s -ldl
configure:3657: checking for gcc
configure:3673: found /cm/shared/apps/gcc/4.8.1/bin/gcc
configure:3684: result: gcc
configure:3913: checking for C compiler version
configure:3922: gcc --version >&5
gcc (GCC) 4.8.1
Copyright (C) 2013 Free Software Foundation, Inc.
This is free software; see the source for copying conditions.  There is NO
warranty; not even for MERCHANTABILITY or FITNESS FOR A PARTICULAR PURPOSE.

configure:3933: $? = 0
configure:3922: gcc -v >&5
Using built-in specs.
COLLECT_GCC=gcc
COLLECT_LTO_WRAPPER=/cm/shared/apps/gcc/4.8.1/libexec/gcc/x86_64-unknown-linux-gnu/4.8.1/lto-wrapper
Target: x86_64-unknown-linux-gnu
Configured with: ../gcc-4.8.1/configure --prefix=/cm/shared/apps/gcc/4.8.1 --enable-languages=c,c++,fortran --with-gmp-include=/usr/src/redhat/BUILD/gcc-4.8.1-obj/../gcc-4.8.1/our-gmp --with-gmp-lib=/usr/src/redhat/BUILD/gcc-4.8.1-obj/../gcc-4.8.1/our-gmp --with-mpc-include=/usr/src/redhat/BUILD/gcc-4.8.1-obj/../gcc-4.8.1/our-mpc/src --with-mpc-lib=/usr/src/redhat/BUILD/gcc-4.8.1-obj/../gcc-4.8.1/our-mpc/src/.libs --with-mpfr-include=/usr/src/redhat/BUILD/gcc-4.8.1-obj/../gcc-4.8.1/our-mpfr/src --with-mpfr-lib=/usr/src/redhat/BUILD/gcc-4.8.1-obj/../gcc-4.8.1/our-mpfr/src/.libs
Thread model: posix
gcc version 4.8.1 (GCC) 
configure:3933: $? = 0
configure:3922: gcc -V >&5
gcc: error: unrecognized command line option '-V'
gcc: fatal error: no input files
compilation terminated.
configure:3933: $? = 1
configure:3922: gcc -qversion >&5
gcc: error: unrecognized command line option '-qversion'
gcc: fatal error: no input files
compilation terminated.
configure:3933: $? = 1
configure:3937: checking whether we are using the GNU C compiler
configure:3964: gcc -c   conftest.c >&5
configure:3964: $? = 0
configure:3973: result: yes
configure:3982: checking whether gcc accepts -g
configure:4010: gcc -c -g  conftest.c >&5
configure:4010: $? = 0
configure:4067: result: yes
configure:4084: checking for gcc option to accept ISO C89
configure:4155: gcc  -c -g -O2  conftest.c >&5
configure:4155: $? = 0
configure:4168: result: none needed
configure:4194: checking for dummy main to link with Fortran libraries
configure:4228: gcc -o conftest -g -O2   conftest.c   -L/cm/shared/apps/intel/composer_xe/2015.1.133/mkl/lib/intel64 -L/cm/shared/apps/intel/mpi/5.0.2.044/intel64/lib -L/cm/shared/apps/intel/composer_xe/2015.1.133/compiler/lib/intel64 -L/cm/shared/apps/intel/composer_xe/2015.1.133/mpirt/lib/intel64 -L/cm/shared/apps/gcc/4.8.1/lib/gcc/x86_64-unknown-linux-gnu/4.8.1/ -L/cm/shared/apps/gcc/4.8.1/lib/gcc/x86_64-unknown-linux-gnu/4.8.1/../../../../lib64 -L/cm/shared/apps/gcc/4.8.1/lib/gcc/x86_64-unknown-linux-gnu/4.8.1/../../../../lib64/ -L/lib/../lib64 -L/lib/../lib64/ -L/usr/lib/../lib64 -L/usr/lib/../lib64/ -L/cm/shared/apps/intel/composer_xe/2015.1.133/mkl/lib/intel64/ -L/cm/shared/apps/intel/mpi/5.0.2.044/intel64/lib/ -L/cm/shared/apps/intel/composer_xe/2015.1.133/compiler/lib/intel64/ -L/cm/shared/apps/intel/composer_xe/2015.1.133/mpirt/lib/intel64/ -L/cm/shared/apps/gcc/4.8.1/lib/gcc/x86_64-unknown-linux-gnu/4.8.1/../../../ -L/lib64 -L/lib/ -L/usr/lib64 -L/usr/lib -lifport -lifcore -limf -lsvml -lm -lipgo -lirc -lpthread -lirc_s -ldl >&5
configure:4228: $? = 0
configure:4273: result: none
configure:4306: checking for Fortran name-mangling scheme
configure:4319: ifort -c -g  conftest.f >&5
configure:4319: $? = 0
configure:4360: gcc -o conftest -g -O2   conftest.c cfortran_test.o   -L/cm/shared/apps/intel/composer_xe/2015.1.133/mkl/lib/intel64 -L/cm/shared/apps/intel/mpi/5.0.2.044/intel64/lib -L/cm/shared/apps/intel/composer_xe/2015.1.133/compiler/lib/intel64 -L/cm/shared/apps/intel/composer_xe/2015.1.133/mpirt/lib/intel64 -L/cm/shared/apps/gcc/4.8.1/lib/gcc/x86_64-unknown-linux-gnu/4.8.1/ -L/cm/shared/apps/gcc/4.8.1/lib/gcc/x86_64-unknown-linux-gnu/4.8.1/../../../../lib64 -L/cm/shared/apps/gcc/4.8.1/lib/gcc/x86_64-unknown-linux-gnu/4.8.1/../../../../lib64/ -L/lib/../lib64 -L/lib/../lib64/ -L/usr/lib/../lib64 -L/usr/lib/../lib64/ -L/cm/shared/apps/intel/composer_xe/2015.1.133/mkl/lib/intel64/ -L/cm/shared/apps/intel/mpi/5.0.2.044/intel64/lib/ -L/cm/shared/apps/intel/composer_xe/2015.1.133/compiler/lib/intel64/ -L/cm/shared/apps/intel/composer_xe/2015.1.133/mpirt/lib/intel64/ -L/cm/shared/apps/gcc/4.8.1/lib/gcc/x86_64-unknown-linux-gnu/4.8.1/../../../ -L/lib64 -L/lib/ -L/usr/lib64 -L/usr/lib -lifport -lifcore -limf -lsvml -lm -lipgo -lirc -lpthread -lirc_s -ldl >&5
/tmp/ccKLxeP4.o: In function `main':
/gpfs/scratch/clouzet/SPECFEM/specfem3d_globe_berkeley/conftest.c:28: undefined reference to `foobar'
collect2: error: ld returned 1 exit status
configure:4360: $? = 1
configure: failed program was:
| /* confdefs.h */
| #define PACKAGE_NAME "Specfem3D_Globe"
| #define PACKAGE_TARNAME "Specfem3DGlobe"
| #define PACKAGE_VERSION "6.0.0"
| #define PACKAGE_STRING "Specfem3D_Globe 6.0.0"
| #define PACKAGE_BUGREPORT "see the wiki"
| #define PACKAGE_URL ""
| /* end confdefs.h.  */
| 
| /* Override any GCC internal prototype to avoid an error.
|    Use char because int might match the return type of a GCC
|    builtin and then its argument prototype would still apply.  */
| #ifdef __cplusplus
| extern "C"
| #endif
| char foobar ();
| #ifdef FC_DUMMY_MAIN
| #ifndef FC_DUMMY_MAIN_EQ_F77
| #  ifdef __cplusplus
|      extern "C"
| #  endif
|    int FC_DUMMY_MAIN() { return 1; }
| #endif
| #endif
| int
| main ()
| {
| return foobar ();
|   ;
|   return 0;
| }
configure:4360: gcc -o conftest -g -O2   conftest.c cfortran_test.o   -L/cm/shared/apps/intel/composer_xe/2015.1.133/mkl/lib/intel64 -L/cm/shared/apps/intel/mpi/5.0.2.044/intel64/lib -L/cm/shared/apps/intel/composer_xe/2015.1.133/compiler/lib/intel64 -L/cm/shared/apps/intel/composer_xe/2015.1.133/mpirt/lib/intel64 -L/cm/shared/apps/gcc/4.8.1/lib/gcc/x86_64-unknown-linux-gnu/4.8.1/ -L/cm/shared/apps/gcc/4.8.1/lib/gcc/x86_64-unknown-linux-gnu/4.8.1/../../../../lib64 -L/cm/shared/apps/gcc/4.8.1/lib/gcc/x86_64-unknown-linux-gnu/4.8.1/../../../../lib64/ -L/lib/../lib64 -L/lib/../lib64/ -L/usr/lib/../lib64 -L/usr/lib/../lib64/ -L/cm/shared/apps/intel/composer_xe/2015.1.133/mkl/lib/intel64/ -L/cm/shared/apps/intel/mpi/5.0.2.044/intel64/lib/ -L/cm/shared/apps/intel/composer_xe/2015.1.133/compiler/lib/intel64/ -L/cm/shared/apps/intel/composer_xe/2015.1.133/mpirt/lib/intel64/ -L/cm/shared/apps/gcc/4.8.1/lib/gcc/x86_64-unknown-linux-gnu/4.8.1/../../../ -L/lib64 -L/lib/ -L/usr/lib64 -L/usr/lib -lifport -lifcore -limf -lsvml -lm -lipgo -lirc -lpthread -lirc_s -ldl >&5
configure:4360: $? = 0
configure:4418: gcc -o conftest -g -O2   conftest.c cfortran_test.o   -L/cm/shared/apps/intel/composer_xe/2015.1.133/mkl/lib/intel64 -L/cm/shared/apps/intel/mpi/5.0.2.044/intel64/lib -L/cm/shared/apps/intel/composer_xe/2015.1.133/compiler/lib/intel64 -L/cm/shared/apps/intel/composer_xe/2015.1.133/mpirt/lib/intel64 -L/cm/shared/apps/gcc/4.8.1/lib/gcc/x86_64-unknown-linux-gnu/4.8.1/ -L/cm/shared/apps/gcc/4.8.1/lib/gcc/x86_64-unknown-linux-gnu/4.8.1/../../../../lib64 -L/cm/shared/apps/gcc/4.8.1/lib/gcc/x86_64-unknown-linux-gnu/4.8.1/../../../../lib64/ -L/lib/../lib64 -L/lib/../lib64/ -L/usr/lib/../lib64 -L/usr/lib/../lib64/ -L/cm/shared/apps/intel/composer_xe/2015.1.133/mkl/lib/intel64/ -L/cm/shared/apps/intel/mpi/5.0.2.044/intel64/lib/ -L/cm/shared/apps/intel/composer_xe/2015.1.133/compiler/lib/intel64/ -L/cm/shared/apps/intel/composer_xe/2015.1.133/mpirt/lib/intel64/ -L/cm/shared/apps/gcc/4.8.1/lib/gcc/x86_64-unknown-linux-gnu/4.8.1/../../../ -L/lib64 -L/lib/ -L/usr/lib64 -L/usr/lib -lifport -lifcore -limf -lsvml -lm -lipgo -lirc -lpthread -lirc_s -ldl >&5
configure:4418: $? = 0
configure:4460: result: lower case, underscore, no extra underscore
configure:4535: checking for Fortran flag to compile .f90 files
configure:4555: ifort -c -g  conftest.f90 >&5
configure:4555: $? = 0
configure:4564: result: none
configure:4589: checking for Fortran flag needed to accept free-form source
configure:4608: ifort -c -g  conftest.f90 >&5
configure:4608: $? = 0
configure:4617: result: none
configure:4641: checking for Fortran flag to compile preprocessed .F files
configure:4666: ifort -c -g  conftest.F >&5
configure:4666: $? = 0
configure:4676: ifort -c -g  conftest.F >&5
conftest.F(4): #error: can't find include file: ac_nonexistent.h
configure:4676: $? = 1
configure: failed program was:
|       program main
| 
| #if 1
| #include <ac_nonexistent.h>
|       choke me
| #endif
|       end
configure:4689: result: none
configure:4710: checking how to define symbols for preprocessed Fortran
configure:4732: ifort -c -g -DFOOBAR -DZORK=42  conftest.F >&5
configure:4732: $? = 0
configure:4741: result: -D
configure:4761: checking for Fortran flag to compile preprocessed .F90 files
configure:4786: ifort -c -g  conftest.F90 >&5
configure:4786: $? = 0
configure:4796: ifort -c -g  conftest.F90 >&5
conftest.F90(4): #error: can't find include file: ac_nonexistent.h
configure:4796: $? = 1
configure: failed program was:
|       program main
| 
| #if 1
| #include <ac_nonexistent.h>
|       choke me
| #endif
|       end
configure:4809: result: none
configure:4878: checking for gcc
configure:4905: result: gcc
configure:5134: checking for C compiler version
configure:5143: gcc --version >&5
gcc (GCC) 4.8.1
Copyright (C) 2013 Free Software Foundation, Inc.
This is free software; see the source for copying conditions.  There is NO
warranty; not even for MERCHANTABILITY or FITNESS FOR A PARTICULAR PURPOSE.

configure:5154: $? = 0
configure:5143: gcc -v >&5
Using built-in specs.
COLLECT_GCC=gcc
COLLECT_LTO_WRAPPER=/cm/shared/apps/gcc/4.8.1/libexec/gcc/x86_64-unknown-linux-gnu/4.8.1/lto-wrapper
Target: x86_64-unknown-linux-gnu
Configured with: ../gcc-4.8.1/configure --prefix=/cm/shared/apps/gcc/4.8.1 --enable-languages=c,c++,fortran --with-gmp-include=/usr/src/redhat/BUILD/gcc-4.8.1-obj/../gcc-4.8.1/our-gmp --with-gmp-lib=/usr/src/redhat/BUILD/gcc-4.8.1-obj/../gcc-4.8.1/our-gmp --with-mpc-include=/usr/src/redhat/BUILD/gcc-4.8.1-obj/../gcc-4.8.1/our-mpc/src --with-mpc-lib=/usr/src/redhat/BUILD/gcc-4.8.1-obj/../gcc-4.8.1/our-mpc/src/.libs --with-mpfr-include=/usr/src/redhat/BUILD/gcc-4.8.1-obj/../gcc-4.8.1/our-mpfr/src --with-mpfr-lib=/usr/src/redhat/BUILD/gcc-4.8.1-obj/../gcc-4.8.1/our-mpfr/src/.libs
Thread model: posix
gcc version 4.8.1 (GCC) 
configure:5154: $? = 0
configure:5143: gcc -V >&5
gcc: error: unrecognized command line option '-V'
gcc: fatal error: no input files
compilation terminated.
configure:5154: $? = 1
configure:5143: gcc -qversion >&5
gcc: error: unrecognized command line option '-qversion'
gcc: fatal error: no input files
compilation terminated.
configure:5154: $? = 1
configure:5158: checking whether we are using the GNU C compiler
configure:5194: result: yes
configure:5203: checking whether gcc accepts -g
configure:5288: result: yes
configure:5305: checking for gcc option to accept ISO C89
configure:5389: result: none needed
configure:5440: checking Fortran 90 module extension
configure:5462: ifort -c -g  conftest.F90 >&5
configure:5462: $? = 0
configure:5478: result: mod
configure:5487: checking Fortran 90 module inclusion flag
configure:5509: ifort -c -g  conftest.F90 >&5
configure:5509: $? = 0
configure:5523: ifort -c -g -Mconftest.dir -Mconftest.dir  conftest.F90 >&5
ifort: command line warning #10006: ignoring unknown option '-Mconftest.dir'
ifort: command line warning #10006: ignoring unknown option '-Mconftest.dir'
conftest.F90(3): error #7002: Error in opening the compiled module file.  Check INCLUDE paths.   [CONFTEST_MODULE]
      use conftest_module
----------^
compilation aborted for conftest.F90 (code 1)
configure:5523: $? = 1
configure: failed program was:
| 
|       program main
|       use conftest_module
|       call conftest_routine
|       end program
configure:5523: ifort -c -g -Iconftest.dir -Iconftest.dir  conftest.F90 >&5
configure:5523: $? = 0
configure:5543: result: -I
configure:5558: checking Fortran 90 module output flag
configure:5586: ifort -c -g -Jsub  conftest.F90 >&5
ifort: command line warning #10006: ignoring unknown option '-Jsub'
configure:5586: $? = 0
configure:5595: ifort -c -g -Jsub  conftest.F90 >&5
ifort: command line warning #10006: ignoring unknown option '-Jsub'
conftest.F90(3): error #7002: Error in opening the compiled module file.  Check INCLUDE paths.   [CONFTEST_MODULE]
      use conftest_module
----------^
compilation aborted for conftest.F90 (code 1)
configure:5595: $? = 1
configure: failed program was:
| 
|       program main
|       use conftest_module
|       call conftest_routine
|       end program
configure:5586: ifort -c -g -J sub  conftest.F90 >&5
ifort: command line warning #10006: ignoring unknown option '-J'
ifort: warning #10145: no action performed for file 'sub'
configure:5586: $? = 0
configure:5595: ifort -c -g -J sub  conftest.F90 >&5
ifort: command line warning #10006: ignoring unknown option '-J'
ifort: error #10236: File not found:  'sub'
conftest.F90(3): error #7002: Error in opening the compiled module file.  Check INCLUDE paths.   [CONFTEST_MODULE]
      use conftest_module
----------^
compilation aborted for conftest.F90 (code 1)
configure:5595: $? = 1
configure: failed program was:
| 
|       program main
|       use conftest_module
|       call conftest_routine
|       end program
configure:5586: ifort -c -g -fmod=sub  conftest.F90 >&5
ifort: command line warning #10006: ignoring unknown option '-fmod=sub'
configure:5586: $? = 0
configure:5595: ifort -c -g -fmod=sub  conftest.F90 >&5
ifort: command line warning #10006: ignoring unknown option '-fmod=sub'
conftest.F90(3): error #7002: Error in opening the compiled module file.  Check INCLUDE paths.   [CONFTEST_MODULE]
      use conftest_module
----------^
compilation aborted for conftest.F90 (code 1)
configure:5595: $? = 1
configure: failed program was:
| 
|       program main
|       use conftest_module
|       call conftest_routine
|       end program
configure:5586: ifort -c -g -moddir=sub  conftest.F90 >&5
ifort: command line warning #10159: invalid argument for option '-m'
configure:5586: $? = 0
configure:5595: ifort -c -g -moddir=sub  conftest.F90 >&5
ifort: command line warning #10159: invalid argument for option '-m'
conftest.F90(3): error #7002: Error in opening the compiled module file.  Check INCLUDE paths.   [CONFTEST_MODULE]
      use conftest_module
----------^
compilation aborted for conftest.F90 (code 1)
configure:5595: $? = 1
configure: failed program was:
| 
|       program main
|       use conftest_module
|       call conftest_routine
|       end program
configure:5586: ifort -c -g +moddir=sub  conftest.F90 >&5
ifort: error #10236: File not found:  '+moddir=sub'
configure:5586: $? = 1
configure: failed program was:
| 
|       module conftest_module
|       contains
|       subroutine conftest_routine
|       write(*,'(a)') 'gotcha!'
|       end subroutine
|       end module
configure:5586: ifort -c -g -qmoddir=sub  conftest.F90 >&5
ifort: command line warning #10006: ignoring unknown option '-qmoddir=sub'
configure:5586: $? = 0
configure:5595: ifort -c -g -qmoddir=sub  conftest.F90 >&5
ifort: command line warning #10006: ignoring unknown option '-qmoddir=sub'
conftest.F90(3): error #7002: Error in opening the compiled module file.  Check INCLUDE paths.   [CONFTEST_MODULE]
      use conftest_module
----------^
compilation aborted for conftest.F90 (code 1)
configure:5595: $? = 1
configure: failed program was:
| 
|       program main
|       use conftest_module
|       call conftest_routine
|       end program
configure:5586: ifort -c -g -mod sub  conftest.F90 >&5
configure:5586: $? = 0
configure:5595: ifort -c -g -mod sub  conftest.F90 >&5
configure:5595: $? = 0
configure:5616: result: -mod 
configure:5650: checking how to run the C preprocessor
configure:5681: gcc -E  conftest.c
configure:5681: $? = 0
configure:5695: gcc -E  conftest.c
conftest.c:11:28: fatal error: ac_nonexistent.h: No such file or directory
 #include <ac_nonexistent.h>
                            ^
compilation terminated.
configure:5695: $? = 1
configure: failed program was:
| /* confdefs.h */
| #define PACKAGE_NAME "Specfem3D_Globe"
| #define PACKAGE_TARNAME "Specfem3DGlobe"
| #define PACKAGE_VERSION "6.0.0"
| #define PACKAGE_STRING "Specfem3D_Globe 6.0.0"
| #define PACKAGE_BUGREPORT "see the wiki"
| #define PACKAGE_URL ""
| #define FC_FUNC(name,NAME) name ## _
| #define FC_FUNC_(name,NAME) name ## _
| /* end confdefs.h.  */
| #include <ac_nonexistent.h>
configure:5720: result: gcc -E
configure:5740: gcc -E  conftest.c
configure:5740: $? = 0
configure:5754: gcc -E  conftest.c
conftest.c:11:28: fatal error: ac_nonexistent.h: No such file or directory
 #include <ac_nonexistent.h>
                            ^
compilation terminated.
configure:5754: $? = 1
configure: failed program was:
| /* confdefs.h */
| #define PACKAGE_NAME "Specfem3D_Globe"
| #define PACKAGE_TARNAME "Specfem3DGlobe"
| #define PACKAGE_VERSION "6.0.0"
| #define PACKAGE_STRING "Specfem3D_Globe 6.0.0"
| #define PACKAGE_BUGREPORT "see the wiki"
| #define PACKAGE_URL ""
| #define FC_FUNC(name,NAME) name ## _
| #define FC_FUNC_(name,NAME) name ## _
| /* end confdefs.h.  */
| #include <ac_nonexistent.h>
configure:5783: checking for grep that handles long lines and -e
configure:5841: result: /bin/grep
configure:5846: checking for egrep
configure:5908: result: /bin/grep -E
configure:5913: checking for ANSI C header files
configure:5941: gcc -c -g -O2  conftest.c >&5
configure:5941: $? = 0
configure:6014: gcc -o conftest -g -O2   conftest.c  >&5
configure:6014: $? = 0
configure:6014: ./conftest
configure:6014: $? = 0
configure:6025: result: yes
configure:6038: checking for sys/types.h
configure:6038: gcc -c -g -O2  conftest.c >&5
configure:6038: $? = 0
configure:6038: result: yes
configure:6038: checking for sys/stat.h
configure:6038: gcc -c -g -O2  conftest.c >&5
configure:6038: $? = 0
configure:6038: result: yes
configure:6038: checking for stdlib.h
configure:6038: gcc -c -g -O2  conftest.c >&5
configure:6038: $? = 0
configure:6038: result: yes
configure:6038: checking for string.h
configure:6038: gcc -c -g -O2  conftest.c >&5
configure:6038: $? = 0
configure:6038: result: yes
configure:6038: checking for memory.h
configure:6038: gcc -c -g -O2  conftest.c >&5
configure:6038: $? = 0
configure:6038: result: yes
configure:6038: checking for strings.h
configure:6038: gcc -c -g -O2  conftest.c >&5
configure:6038: $? = 0
configure:6038: result: yes
configure:6038: checking for inttypes.h
configure:6038: gcc -c -g -O2  conftest.c >&5
configure:6038: $? = 0
configure:6038: result: yes
configure:6038: checking for stdint.h
configure:6038: gcc -c -g -O2  conftest.c >&5
configure:6038: $? = 0
configure:6038: result: yes
configure:6038: checking for unistd.h
configure:6038: gcc -c -g -O2  conftest.c >&5
configure:6038: $? = 0
configure:6038: result: yes
configure:6050: checking emmintrin.h usability
configure:6050: gcc -c -g -O2  conftest.c >&5
configure:6050: $? = 0
configure:6050: result: yes
configure:6050: checking emmintrin.h presence
configure:6050: gcc -E  conftest.c
configure:6050: $? = 0
configure:6050: result: yes
configure:6050: checking for emmintrin.h
configure:6050: result: yes
configure:6058: checking xmmintrin.h usability
configure:6058: gcc -c -g -O2  conftest.c >&5
configure:6058: $? = 0
configure:6058: result: yes
configure:6058: checking xmmintrin.h presence
configure:6058: gcc -E  conftest.c
configure:6058: $? = 0
configure:6058: result: yes
configure:6058: checking for xmmintrin.h
configure:6058: result: yes
configure:6099: checking whether "use mpi" works
configure:6113: mpiifort -c -g -O3 -check nobounds -xHost -fpe0 -ftz -assume buffered_io -assume byterecl -align sequence -vec-report0 -std03 -diag-disable 6477 -implicitnone -gen-interfaces -warn all  conftest.F90 >&5
ifort: command line remark #10010: option '-vec-report0' is deprecated and will be removed in a future release. See '-help deprecated'
configure:6113: $? = 0
configure:6115: result: yes
configure:6362: checking for g++
configure:6378: found /cm/shared/apps/gcc/4.8.1/bin/g++
configure:6389: result: g++
configure:6416: checking for C++ compiler version
configure:6425: g++ --version >&5
g++ (GCC) 4.8.1
Copyright (C) 2013 Free Software Foundation, Inc.
This is free software; see the source for copying conditions.  There is NO
warranty; not even for MERCHANTABILITY or FITNESS FOR A PARTICULAR PURPOSE.

configure:6436: $? = 0
configure:6425: g++ -v >&5
Using built-in specs.
COLLECT_GCC=g++
COLLECT_LTO_WRAPPER=/cm/shared/apps/gcc/4.8.1/libexec/gcc/x86_64-unknown-linux-gnu/4.8.1/lto-wrapper
Target: x86_64-unknown-linux-gnu
Configured with: ../gcc-4.8.1/configure --prefix=/cm/shared/apps/gcc/4.8.1 --enable-languages=c,c++,fortran --with-gmp-include=/usr/src/redhat/BUILD/gcc-4.8.1-obj/../gcc-4.8.1/our-gmp --with-gmp-lib=/usr/src/redhat/BUILD/gcc-4.8.1-obj/../gcc-4.8.1/our-gmp --with-mpc-include=/usr/src/redhat/BUILD/gcc-4.8.1-obj/../gcc-4.8.1/our-mpc/src --with-mpc-lib=/usr/src/redhat/BUILD/gcc-4.8.1-obj/../gcc-4.8.1/our-mpc/src/.libs --with-mpfr-include=/usr/src/redhat/BUILD/gcc-4.8.1-obj/../gcc-4.8.1/our-mpfr/src --with-mpfr-lib=/usr/src/redhat/BUILD/gcc-4.8.1-obj/../gcc-4.8.1/our-mpfr/src/.libs
Thread model: posix
gcc version 4.8.1 (GCC) 
configure:6436: $? = 0
configure:6425: g++ -V >&5
g++: error: unrecognized command line option '-V'
g++: fatal error: no input files
compilation terminated.
configure:6436: $? = 1
configure:6425: g++ -qversion >&5
g++: error: unrecognized command line option '-qversion'
g++: fatal error: no input files
compilation terminated.
configure:6436: $? = 1
configure:6440: checking whether we are using the GNU C++ compiler
configure:6467: g++ -c   conftest.cpp >&5
configure:6467: $? = 0
configure:6476: result: yes
configure:6485: checking whether g++ accepts -g
configure:6513: g++ -c -g  conftest.cpp >&5
configure:6513: $? = 0
configure:6570: result: yes
configure:6599: checking how to run the C++ preprocessor
configure:6626: g++ -E  conftest.cpp
configure:6626: $? = 0
configure:6640: g++ -E  conftest.cpp
conftest.cpp:23:28: fatal error: ac_nonexistent.h: No such file or directory
 #include <ac_nonexistent.h>
                            ^
compilation terminated.
configure:6640: $? = 1
configure: failed program was:
| /* confdefs.h */
| #define PACKAGE_NAME "Specfem3D_Globe"
| #define PACKAGE_TARNAME "Specfem3DGlobe"
| #define PACKAGE_VERSION "6.0.0"
| #define PACKAGE_STRING "Specfem3D_Globe 6.0.0"
| #define PACKAGE_BUGREPORT "see the wiki"
| #define PACKAGE_URL ""
| #define FC_FUNC(name,NAME) name ## _
| #define FC_FUNC_(name,NAME) name ## _
| #define STDC_HEADERS 1
| #define HAVE_SYS_TYPES_H 1
| #define HAVE_SYS_STAT_H 1
| #define HAVE_STDLIB_H 1
| #define HAVE_STRING_H 1
| #define HAVE_MEMORY_H 1
| #define HAVE_STRINGS_H 1
| #define HAVE_INTTYPES_H 1
| #define HAVE_STDINT_H 1
| #define HAVE_UNISTD_H 1
| #define HAVE_EMMINTRIN 1
| #define HAVE_XMMINTRIN 1
| /* end confdefs.h.  */
| #include <ac_nonexistent.h>
configure:6665: result: g++ -E
configure:6685: g++ -E  conftest.cpp
configure:6685: $? = 0
configure:6699: g++ -E  conftest.cpp
conftest.cpp:23:28: fatal error: ac_nonexistent.h: No such file or directory
 #include <ac_nonexistent.h>
                            ^
compilation terminated.
configure:6699: $? = 1
configure: failed program was:
| /* confdefs.h */
| #define PACKAGE_NAME "Specfem3D_Globe"
| #define PACKAGE_TARNAME "Specfem3DGlobe"
| #define PACKAGE_VERSION "6.0.0"
| #define PACKAGE_STRING "Specfem3D_Globe 6.0.0"
| #define PACKAGE_BUGREPORT "see the wiki"
| #define PACKAGE_URL ""
| #define FC_FUNC(name,NAME) name ## _
| #define FC_FUNC_(name,NAME) name ## _
| #define STDC_HEADERS 1
| #define HAVE_SYS_TYPES_H 1
| #define HAVE_SYS_STAT_H 1
| #define HAVE_STDLIB_H 1
| #define HAVE_STRING_H 1
| #define HAVE_MEMORY_H 1
| #define HAVE_STRINGS_H 1
| #define HAVE_INTTYPES_H 1
| #define HAVE_STDINT_H 1
| #define HAVE_UNISTD_H 1
| #define HAVE_EMMINTRIN 1
| #define HAVE_XMMINTRIN 1
| /* end confdefs.h.  */
| #include <ac_nonexistent.h>
configure:7544: creating ./config.status

## ---------------------- ##
## Running config.status. ##
## ---------------------- ##

This file was extended by Specfem3D_Globe config.status 6.0.0, which was
generated by GNU Autoconf 2.69.  Invocation command line was

  CONFIG_FILES    = 
  CONFIG_HEADERS  = 
  CONFIG_LINKS    = 
  CONFIG_COMMANDS = 
  $ ./config.status 

on malbec01

config.status:903: creating Makefile
config.status:903: creating setup/constants.h
config.status:903: creating setup/precision.h
config.status:903: creating setup/config.fh
config.status:903: creating DATA/Par_file
config.status:903: creating DATA/CMTSOLUTION
config.status:903: creating DATA/STATIONS
config.status:903: creating setup/config.h
config.status:1073: setup/config.h is unchanged
config.status:1118: executing bin commands
config.status:1118: executing obj commands
config.status:1118: executing OUTPUT_FILES commands
configure:8783: result: 
configure:8788: result: 
configure:8790: result: ./configure has completed and set up a default configuration to build.
configure:8792: result: 
configure:8794: result: You may wish to modify the following files before building:
configure:8797: result:   DATA/Par_file           Set parameters affecting the build and simulation
                          before running make and compiling.
configure:8800: result:   DATA/CMTSOLUTION        Set the source parameters before running the solver.
configure:8802: result:   DATA/STATIONS           Set the receiver stations before running the solver.
configure:8804: result: 

## ---------------- ##
## Cache variables. ##
## ---------------- ##

ac_cv_build=x86_64-unknown-linux-gnu
ac_cv_c_compiler_gnu=yes
ac_cv_cxx_compiler_gnu=yes
ac_cv_env_ADIOS_CONFIG_set=
ac_cv_env_ADIOS_CONFIG_value=
ac_cv_env_CCC_set=
ac_cv_env_CCC_value=
ac_cv_env_CC_set=
ac_cv_env_CC_value=
ac_cv_env_CFLAGS_set=
ac_cv_env_CFLAGS_value=
ac_cv_env_CPPFLAGS_set=
ac_cv_env_CPPFLAGS_value=
ac_cv_env_CPP_set=
ac_cv_env_CPP_value=
ac_cv_env_CUDA_FLAGS_set=
ac_cv_env_CUDA_FLAGS_value=
ac_cv_env_CUDA_INC_set=
ac_cv_env_CUDA_INC_value=
ac_cv_env_CUDA_LIB_set=
ac_cv_env_CUDA_LIB_value=
ac_cv_env_CXXCPP_set=
ac_cv_env_CXXCPP_value=
ac_cv_env_CXXFLAGS_set=
ac_cv_env_CXXFLAGS_value=
ac_cv_env_CXX_set=
ac_cv_env_CXX_value=
ac_cv_env_FCFLAGS_set=
ac_cv_env_FCFLAGS_value=
ac_cv_env_FC_set=set
ac_cv_env_FC_value=ifort
ac_cv_env_FLAGS_CHECK_set=
ac_cv_env_FLAGS_CHECK_value=
ac_cv_env_LDFLAGS_set=
ac_cv_env_LDFLAGS_value=
ac_cv_env_LIBS_set=
ac_cv_env_LIBS_value=
ac_cv_env_LOCAL_PATH_IS_ALSO_GLOBAL_set=
ac_cv_env_LOCAL_PATH_IS_ALSO_GLOBAL_value=
ac_cv_env_MPIFC_set=set
ac_cv_env_MPIFC_value=mpiifort
ac_cv_env_MPILIBS_set=
ac_cv_env_MPILIBS_value=
ac_cv_env_MPI_INC_set=
ac_cv_env_MPI_INC_value=
ac_cv_env_build_alias_set=
ac_cv_env_build_alias_value=
ac_cv_env_host_alias_set=
ac_cv_env_host_alias_value=
ac_cv_env_target_alias_set=
ac_cv_env_target_alias_value=
ac_cv_fc_compiler_gnu=no
ac_cv_fc_dummy_main=none
ac_cv_fc_freeform=none
ac_cv_fc_libs=' -L/cm/shared/apps/intel/composer_xe/2015.1.133/mkl/lib/intel64 -L/cm/shared/apps/intel/mpi/5.0.2.044/intel64/lib -L/cm/shared/apps/intel/composer_xe/2015.1.133/compiler/lib/intel64 -L/cm/shared/apps/intel/composer_xe/2015.1.133/mpirt/lib/intel64 -L/cm/shared/apps/gcc/4.8.1/lib/gcc/x86_64-unknown-linux-gnu/4.8.1/ -L/cm/shared/apps/gcc/4.8.1/lib/gcc/x86_64-unknown-linux-gnu/4.8.1/../../../../lib64 -L/cm/shared/apps/gcc/4.8.1/lib/gcc/x86_64-unknown-linux-gnu/4.8.1/../../../../lib64/ -L/lib/../lib64 -L/lib/../lib64/ -L/usr/lib/../lib64 -L/usr/lib/../lib64/ -L/cm/shared/apps/intel/composer_xe/2015.1.133/mkl/lib/intel64/ -L/cm/shared/apps/intel/mpi/5.0.2.044/intel64/lib/ -L/cm/shared/apps/intel/composer_xe/2015.1.133/compiler/lib/intel64/ -L/cm/shared/apps/intel/composer_xe/2015.1.133/mpirt/lib/intel64/ -L/cm/shared/apps/gcc/4.8.1/lib/gcc/x86_64-unknown-linux-gnu/4.8.1/../../../ -L/lib64 -L/lib/ -L/usr/lib64 -L/usr/lib -lifport -lifcore -limf -lsvml -lm -lipgo -lirc -lpthread -lirc_s -ldl'
ac_cv_fc_mangling='lower case, underscore, no extra underscore'
ac_cv_fc_module_ext=mod
ac_cv_fc_module_flag=-I
ac_cv_fc_module_output_flag='-mod '
ac_cv_fc_pp_define=-D
ac_cv_fc_pp_srcext_F90=none
ac_cv_fc_pp_srcext_F=none
ac_cv_fc_srcext_f90=none
ac_cv_fortran_dummy_main=none
ac_cv_header_emmintrin_h=yes
ac_cv_header_inttypes_h=yes
ac_cv_header_memory_h=yes
ac_cv_header_stdc=yes
ac_cv_header_stdint_h=yes
ac_cv_header_stdlib_h=yes
ac_cv_header_string_h=yes
ac_cv_header_strings_h=yes
ac_cv_header_sys_stat_h=yes
ac_cv_header_sys_types_h=yes
ac_cv_header_unistd_h=yes
ac_cv_header_xmmintrin_h=yes
ac_cv_host=x86_64-unknown-linux-gnu
ac_cv_objext=o
ac_cv_path_EGREP='/bin/grep -E'
ac_cv_path_GREP=/bin/grep
ac_cv_prog_CPP='gcc -E'
ac_cv_prog_CXXCPP='g++ -E'
ac_cv_prog_ac_ct_CC=gcc
ac_cv_prog_ac_ct_CXX=g++
ac_cv_prog_cc_c89=
ac_cv_prog_cc_g=yes
ac_cv_prog_cxx_g=yes
ac_cv_prog_fc_g=yes
ac_cv_prog_fc_v=-v

## ----------------- ##
## Output variables. ##
## ----------------- ##

ADIOS_CONFIG=''
ADIOS_FCFLAGS=''
ADIOS_LIBS=''
CC='gcc'
CFLAGS='-g -O2'
COND_ADIOS_FALSE=''
COND_ADIOS_TRUE='#'
COND_CUDA5_FALSE=''
COND_CUDA5_TRUE='#'
COND_CUDA_FALSE=''
COND_CUDA_TRUE='#'
COND_VECTORIZATION_FALSE=''
COND_VECTORIZATION_TRUE='#'
COND_VTK_FALSE=''
COND_VTK_TRUE='#'
CONFIGURE_FLAGS='FC=ifort FCFLAGS=-g'
CPP='gcc -E'
CPPFLAGS=''
CUDA_CPPFLAGS=''
CUDA_FLAGS=''
CUDA_INC=''
CUDA_LDFLAGS=''
CUDA_LIB=''
CUDA_LIBS=''
CUSTOM_MPI_TYPE='MPI_REAL'
CUSTOM_REAL='SIZE_REAL'
CXX='g++'
CXXCPP='g++ -E'
CXXFLAGS='-g -O2'
DEFS='-DHAVE_CONFIG_H'
ECHO_C=''
ECHO_N='-n'
ECHO_T=''
EGREP='/bin/grep -E'
EXEEXT=''
FC='ifort'
FCENV=''
FCFLAGS='-g'
FCFLAGS_F90=''
FCFLAGS_F=''
FCFLAGS_f90='-mod ./obj -I./obj -I. '
FCLIBS=' -L/cm/shared/apps/intel/composer_xe/2015.1.133/mkl/lib/intel64 -L/cm/shared/apps/intel/mpi/5.0.2.044/intel64/lib -L/cm/shared/apps/intel/composer_xe/2015.1.133/compiler/lib/intel64 -L/cm/shared/apps/intel/composer_xe/2015.1.133/mpirt/lib/intel64 -L/cm/shared/apps/gcc/4.8.1/lib/gcc/x86_64-unknown-linux-gnu/4.8.1/ -L/cm/shared/apps/gcc/4.8.1/lib/gcc/x86_64-unknown-linux-gnu/4.8.1/../../../../lib64 -L/cm/shared/apps/gcc/4.8.1/lib/gcc/x86_64-unknown-linux-gnu/4.8.1/../../../../lib64/ -L/lib/../lib64 -L/lib/../lib64/ -L/usr/lib/../lib64 -L/usr/lib/../lib64/ -L/cm/shared/apps/intel/composer_xe/2015.1.133/mkl/lib/intel64/ -L/cm/shared/apps/intel/mpi/5.0.2.044/intel64/lib/ -L/cm/shared/apps/intel/composer_xe/2015.1.133/compiler/lib/intel64/ -L/cm/shared/apps/intel/composer_xe/2015.1.133/mpirt/lib/intel64/ -L/cm/shared/apps/gcc/4.8.1/lib/gcc/x86_64-unknown-linux-gnu/4.8.1/../../../ -L/lib64 -L/lib/ -L/usr/lib64 -L/usr/lib -lifport -lifcore -limf -lsvml -lm -lipgo -lirc -lpthread -lirc_s -ldl'
FC_DEFINE='-D'
FC_MODDIR='./obj'
FC_MODEXT='mod'
FC_MODINC='-I'
FC_MODOUT='-mod ${ac_empty}'
FLAGS_CHECK='-O3 -check nobounds -xHost -fpe0 -ftz -assume buffered_io -assume byterecl -align sequence -vec-report0 -std03 -diag-disable 6477 -implicitnone -gen-interfaces -warn all'
GREP='/bin/grep'
LDFLAGS=''
LIBOBJS=''
LIBS=''
LOCAL_PATH_IS_ALSO_GLOBAL='true'
LTLIBOBJS=''
MPIFC='mpiifort'
MPILIBS=''
MPI_INC=''
MPI_INCLUDES=''
NVCC=''
OBJEXT='o'
PACKAGE_BUGREPORT='see the wiki'
PACKAGE_NAME='Specfem3D_Globe'
PACKAGE_STRING='Specfem3D_Globe 6.0.0'
PACKAGE_TARNAME='Specfem3DGlobe'
PACKAGE_URL=''
PACKAGE_VERSION='6.0.0'
PATH_SEPARATOR=':'
SHELL='/bin/sh'
VTK_INCLUDES=''
VTK_LDFLAGS=''
VTK_LIBS=''
ac_ct_CC='gcc'
ac_ct_CXX='g++'
ac_ct_FC=''
ac_empty=''
bindir='${exec_prefix}/bin'
build='x86_64-unknown-linux-gnu'
build_alias=''
build_cpu='x86_64'
build_os='linux-gnu'
build_vendor='unknown'
datadir='${datarootdir}'
datarootdir='${prefix}/share'
docdir='${datarootdir}/doc/${PACKAGE_TARNAME}'
dvidir='${docdir}'
exec_prefix='${prefix}'
host='x86_64-unknown-linux-gnu'
host_alias=''
host_cpu='x86_64'
host_os='linux-gnu'
host_vendor='unknown'
htmldir='${docdir}'
includedir='${prefix}/include'
infodir='${datarootdir}/info'
libdir='${exec_prefix}/lib'
libexecdir='${exec_prefix}/libexec'
localedir='${datarootdir}/locale'
localstatedir='${prefix}/var'
mandir='${datarootdir}/man'
oldincludedir='/usr/include'
pdfdir='${docdir}'
prefix='/usr/local'
program_transform_name='s,x,x,'
psdir='${docdir}'
sbindir='${exec_prefix}/sbin'
sharedstatedir='${prefix}/com'
sysconfdir='${prefix}/etc'
target_alias=''

## ----------- ##
## confdefs.h. ##
## ----------- ##

/* confdefs.h */
#define PACKAGE_NAME "Specfem3D_Globe"
#define PACKAGE_TARNAME "Specfem3DGlobe"
#define PACKAGE_VERSION "6.0.0"
#define PACKAGE_STRING "Specfem3D_Globe 6.0.0"
#define PACKAGE_BUGREPORT "see the wiki"
#define PACKAGE_URL ""
#define FC_FUNC(name,NAME) name ## _
#define FC_FUNC_(name,NAME) name ## _
#define STDC_HEADERS 1
#define HAVE_SYS_TYPES_H 1
#define HAVE_SYS_STAT_H 1
#define HAVE_STDLIB_H 1
#define HAVE_STRING_H 1
#define HAVE_MEMORY_H 1
#define HAVE_STRINGS_H 1
#define HAVE_INTTYPES_H 1
#define HAVE_STDINT_H 1
#define HAVE_UNISTD_H 1
#define HAVE_EMMINTRIN 1
#define HAVE_XMMINTRIN 1

configure: exit 0
