 
 ******************************
 **** Specfem3D MPI Solver ****
 ******************************
 
 
 Fixing slow underflow trapping problem using small initial field
 
 There are          384  MPI processes
 Processes are numbered from 0 to          383
 
 There are          256  elements along xi in each chunk
 There are          256  elements along eta in each chunk
 
 There are            8  slices along xi in each chunk
 There are            8  slices along eta in each chunk
 There is a total of           64  slices in each chunk
 There are            6  chunks
 There is a total of          384  slices in all the chunks
 
 NDIM =            3
 
 NGLLX =            5
 NGLLY =            5
 NGLLZ =            5
 
 using single precision for the calculations
 
 smallest and largest possible floating-point numbers are:   1.1754944E-38
  3.4028235E+38
 
 model: 3D_berkeley
   incorporating the oceans using equivalent load
   incorporating ellipticity
   incorporating surface topography
   incorporating self-gravitation (Cowling approximation)
   incorporating rotation
   incorporating attenuation using            3  standard linear solids
 
   incorporating 3-D lateral variations
   no heterogeneities in the mantle
   incorporating crustal variations
   using one layer only in PREM crust
   incorporating transverse isotropy
   no inner-core anisotropy
   no general mantle anisotropy
 
 
 mesh databases:
   reading in crust/mantle databases...
   reading in outer core databases...
   reading in inner core databases...
   reading in coupling surface databases...
   reading in addressing...
 Spatial distribution of the slices
                       63   55   47   39   31   23   15    7
                       62   54   46   38   30   22   14    6
                       61   53   45   37   29   21   13    5
                       60   52   44   36   28   20   12    4
                       59   51   43   35   27   19   11    3
                       58   50   42   34   26   18   10    2
                       57   49   41   33   25   17    9    1
                       56   48   40   32   24   16    8    0
  
   191  183  175  167  159  151  143  135     127  119  111  103   95   87   79   71     319  311  303  295  287  279  271  263
   190  182  174  166  158  150  142  134     126  118  110  102   94   86   78   70     318  310  302  294  286  278  270  262
   189  181  173  165  157  149  141  133     125  117  109  101   93   85   77   69     317  309  301  293  285  277  269  261
   188  180  172  164  156  148  140  132     124  116  108  100   92   84   76   68     316  308  300  292  284  276  268  260
   187  179  171  163  155  147  139  131     123  115  107   99   91   83   75   67     315  307  299  291  283  275  267  259
   186  178  170  162  154  146  138  130     122  114  106   98   90   82   74   66     314  306  298  290  282  274  266  258
   185  177  169  161  153  145  137  129     121  113  105   97   89   81   73   65     313  305  297  289  281  273  265  257
   184  176  168  160  152  144  136  128     120  112  104   96   88   80   72   64     312  304  296  288  280  272  264  256
  
                      383  375  367  359  351  343  335  327
                      382  374  366  358  350  342  334  326
                      381  373  365  357  349  341  333  325
                      380  372  364  356  348  340  332  324
                      379  371  363  355  347  339  331  323
                      378  370  362  354  346  338  330  322
                      377  369  361  353  345  337  329  321
                      376  368  360  352  344  336  328  320
  
                      255  247  239  231  223  215  207  199
                      254  246  238  230  222  214  206  198
                      253  245  237  229  221  213  205  197
                      252  244  236  228  220  212  204  196
                      251  243  235  227  219  211  203  195
                      250  242  234  226  218  210  202  194
                      249  241  233  225  217  209  201  193
                      248  240  232  224  216  208  200  192
  
   reading in MPI databases...
   for overlapping of communications with calculations:
 
   percentage of edge elements in crust/mantle    21.67969     %
   percentage of volume elements in crust/mantle    78.32031     %
 
   percentage of edge elements in outer core    51.66667     %
   percentage of volume elements in outer core    48.33333     %
 
   percentage of edge elements in inner core    41.42857     %
   percentage of volume elements in inner core    58.57143     %
 
 
 Elapsed time for reading mesh in seconds =    87.95365    
 
 topography:
 
 Elapsed time for reading topo/bathy in seconds =   0.4644904    
 
 
 sources:
 
 *************************************
  locating source            1
 *************************************
 
 source located in slice          245
                in element         9901
 
    xi coordinate of source in that element:   0.545255418124293     
   eta coordinate of source in that element:  -0.683554343196226     
 gamma coordinate of source in that element:  -1.123119273633588E-002
 
  half duration:    5.30000000000000       seconds
     time shift:   0.000000000000000E+000  seconds
 
 original (requested) position of the source:
 
       latitude:   -18.1500000000000     
      longitude:    120.290000000000     
          depth:    22.1900000000000       km
 
 position of the source that will be used:
 
       latitude:   -18.1500003206894     
      longitude:    120.290000000000     
          depth:    22.1900000000010       km
 
 position of the source that will be used:
 
              x:  -0.478296481157775     
              y:   0.818834375632963     
              z:  -0.308795370342489     
 
 error in location of the source:   7.9081126E-13  km
 
 maximum error in location of the sources:   7.9081126E-13  km
 
 
 Elapsed time for detection of sources in seconds =   3.047101944684982E-002
 
 End of source detection - done
 
 
 printing the source-time function
 
 printing the source spectrum
 
 receivers:
 
 Total number of receivers =         4022
 
 
 ********************
  locating receivers
 ********************
 
 
 ****************************
 reading receiver information
 ****************************
 
 Station #           1 : SQA01.1E    epicentral distance:     26.59165     
  degrees
 Station #           2 : SQA02.1E    epicentral distance:     26.62268     
  degrees
 Station #           3 : SQA03.1E    epicentral distance:     26.61460     
  degrees
 Station #           4 : SQA04.1E    epicentral distance:     26.55774     
  degrees
 Station #           5 : SQA05.1E    epicentral distance:     26.46419     
  degrees
 Station #           6 : SQA06.1E    epicentral distance:     26.37379     
  degrees
 Station #           7 : SQA07.1E    epicentral distance:     26.54942     
  degrees
 Station #           8 : SQA08.1E    epicentral distance:     26.50459     
  degrees
 Station #           9 : SQA09.1E    epicentral distance:     26.49726     
  degrees
 Station #          10 : SQA10.1E    epicentral distance:     26.54745     
  degrees
 Station #          11 : SQA11.1E    epicentral distance:     26.65362     
  degrees
 Station #          12 : SQA12.1E    epicentral distance:     26.60287     
  degrees
 Station #          13 : SQA13.1E    epicentral distance:     26.65349     
  degrees
 Station #          14 : SQA14.1E    epicentral distance:     26.72075     
  degrees
 Station #          15 : SQA15.1E    epicentral distance:     26.76531     
  degrees
 Station #          16 : SQA16.1E    epicentral distance:     26.74918     
  degrees
 Station #          17 : CU01.1F    epicentral distance:     21.80186     
  degrees
 Station #          18 : CU02.1F    epicentral distance:     22.04795     
  degrees
 Station #          19 : CU03.1F    epicentral distance:     22.29063     
  degrees
 Station #          20 : CU04.1F    epicentral distance:     22.62576     
  degrees
 Station #          21 : CU05.1F    epicentral distance:     23.02266     
  degrees
 Station #          22 : CU06.1F    epicentral distance:     23.19157     
  degrees
 Station #          23 : CU07.1F    epicentral distance:     23.37663     
  degrees
 Station #          24 : CU08.1F    epicentral distance:     23.62089     
  degrees
 Station #          25 : CU09.1F    epicentral distance:     21.66360     
  degrees
 Station #          26 : CU10.1F    epicentral distance:     21.78338     
  degrees
 Station #          27 : CU11.1F    epicentral distance:     22.10592     
  degrees
 Station #          28 : CU12.1F    epicentral distance:     22.39461     
  degrees
 Station #          29 : CU13.1F    epicentral distance:     22.67827     
  degrees
 Station #          30 : CU14.1F    epicentral distance:     22.95925     
  degrees
 Station #          31 : CU15.1F    epicentral distance:     23.25669     
  degrees
 Station #          32 : CU16.1F    epicentral distance:     21.22616     
  degrees
 Station #          33 : CU17.1F    epicentral distance:     21.55993     
  degrees
 Station #          34 : CU18.1F    epicentral distance:     21.95263     
  degrees
 Station #          35 : CU19.1F    epicentral distance:     22.29714     
  degrees
 Station #          36 : CU20.1F    epicentral distance:     22.60592     
  degrees
 Station #          37 : CU21.1F    epicentral distance:     22.90740     
  degrees
 Station #          38 : CU22.1F    epicentral distance:     21.30552     
  degrees
 Station #          39 : CU23.1F    epicentral distance:     21.58523     
  degrees
 Station #          40 : CU24.1F    epicentral distance:     21.93406     
  degrees
 Station #          41 : CU25.1F    epicentral distance:     22.21507     
  degrees
 Station #          42 : CU26.1F    epicentral distance:     22.46534     
  degrees
 Station #          43 : CU27.1F    epicentral distance:     20.93596     
  degrees
 Station #          44 : CU28.1F    epicentral distance:     21.06500     
  degrees
 Station #          45 : CU29.1F    epicentral distance:     21.50341     
  degrees
 Station #          46 : CU30.1F    epicentral distance:     21.81325     
  degrees
 Station #          47 : CU31.1F    epicentral distance:     22.16946     
  degrees
 Station #          48 : CU33.1F    epicentral distance:     20.97156     
  degrees
 Station #          49 : CU34.1F    epicentral distance:     21.11460     
  degrees
 Station #          50 : CU35.1F    epicentral distance:     24.21572     
  degrees
 Station #          51 : N103.1F    epicentral distance:     42.46061     
  degrees
 Station #          52 : N105.1F    epicentral distance:     42.37260     
  degrees
 Station #          53 : N106.1F    epicentral distance:     42.33116     
  degrees
 Station #          54 : N107.1F    epicentral distance:     42.29991     
  degrees
 Station #          55 : N108.1F    epicentral distance:     42.26653     
  degrees
 Station #          56 : N109.1F    epicentral distance:     42.24545     
  degrees
 Station #          57 : N110.1F    epicentral distance:     42.20723     
  degrees
 Station #          58 : N111.1F    epicentral distance:     42.19495     
  degrees
 Station #          59 : N112.1F    epicentral distance:     42.14982     
  degrees
 Station #          60 : N113.1F    epicentral distance:     42.12400     
  degrees
 Station #          61 : N114.1F    epicentral distance:     42.11443     
  degrees
 Station #          62 : N115.1F    epicentral distance:     42.09480     
  degrees
 Station #          63 : N117.1F    epicentral distance:     41.98955     
  degrees
 Station #          64 : N118.1F    epicentral distance:     41.94804     
  degrees
 Station #          65 : N119.1F    epicentral distance:     41.93318     
  degrees
 Station #          66 : N120.1F    epicentral distance:     41.91458     
  degrees
 Station #          67 : N121.1F    epicentral distance:     41.90678     
  degrees
 Station #          68 : N122.1F    epicentral distance:     41.89759     
  degrees
 Station #          69 : N123.1F    epicentral distance:     41.88039     
  degrees
 Station #          70 : N124.1F    epicentral distance:     41.85575     
  degrees
 Station #          71 : N125.1F    epicentral distance:     41.82600     
  degrees
 Station #          72 : N126.1F    epicentral distance:     41.82051     
  degrees
 Station #          73 : N127.1F    epicentral distance:     41.80335     
  degrees
 Station #          74 : N128.1F    epicentral distance:     41.79155     
  degrees
 Station #          75 : N129.1F    epicentral distance:     41.77084     
  degrees
 Station #          76 : N130.1F    epicentral distance:     41.75004     
  degrees
 Station #          77 : N131.1F    epicentral distance:     41.71691     
  degrees
 Station #          78 : N132.1F    epicentral distance:     41.68431     
  degrees
 Station #          79 : N133.1F    epicentral distance:     41.63646     
  degrees
 Station #          80 : N134.1F    epicentral distance:     41.69564     
  degrees
 Station #          81 : N135.1F    epicentral distance:     41.69605     
  degrees
 Station #          82 : N136.1F    epicentral distance:     41.69950     
  degrees
 Station #          83 : N137.1F    epicentral distance:     41.67976     
  degrees
 Station #          84 : N138.1F    epicentral distance:     41.68822     
  degrees
 Station #          85 : N139.1F    epicentral distance:     41.70520     
  degrees
 Station #          86 : N140.1F    epicentral distance:     41.70998     
  degrees
 Station #          87 : GW01.1G    epicentral distance:     21.20776     
  degrees
 Station #          88 : GW02.1G    epicentral distance:     20.87607     
  degrees
 Station #          89 : GW03.1G    epicentral distance:     21.21281     
  degrees
 Station #          90 : GW04.1G    epicentral distance:     20.25246     
  degrees
 Station #          91 : GW05.1G    epicentral distance:     20.56036     
  degrees
 Station #          92 : GW06.1G    epicentral distance:     20.91220     
  degrees
 Station #          93 : GW07.1G    epicentral distance:     21.21981     
  degrees
 Station #          94 : GW08.1G    epicentral distance:     19.95639     
  degrees
 Station #          95 : GW09.1G    epicentral distance:     20.26645     
  degrees
 Station #          96 : GW10.1G    epicentral distance:     20.60538     
  degrees
 Station #          97 : GW11.1G    epicentral distance:     20.96309     
  degrees
 Station #          98 : GW12.1G    epicentral distance:     21.22704     
  degrees
 Station #          99 : GW13.1G    epicentral distance:     19.32879     
  degrees
 Station #         100 : GW14.1G    epicentral distance:     19.63611     
  degrees
 Station #         101 : GW15.1G    epicentral distance:     19.95398     
  degrees
 Station #         102 : GW16.1G    epicentral distance:     20.27053     
  degrees
 Station #         103 : GW17.1G    epicentral distance:     20.63658     
  degrees
 Station #         104 : GW18.1G    epicentral distance:     20.97156     
  degrees
 Station #         105 : GW19.1G    epicentral distance:     19.30039     
  degrees
 Station #         106 : GW20.1G    epicentral distance:     19.67189     
  degrees
 Station #         107 : GW21.1G    epicentral distance:     20.16763     
  degrees
 Station #         108 : GW22.1G    epicentral distance:     20.64550     
  degrees
 Station #         109 : GW23.1G    epicentral distance:     19.35373     
  degrees
 Station #         110 : GW24.1G    epicentral distance:     19.90215     
  degrees
 Station #         111 : GW25.1G    epicentral distance:     20.41992     
  degrees
 Station #         112 : GW26.1G    epicentral distance:     19.41491     
  degrees
 Station #         113 : GW27.1G    epicentral distance:     19.77008     
  degrees
 Station #         114 : GW28.1G    epicentral distance:     20.15548     
  degrees
 Station #         115 : GW29.1G    epicentral distance:     20.88475     
  degrees
 Station #         116 : GW30.1G    epicentral distance:     19.50921     
  degrees
 Station #         117 : GW31.1G    epicentral distance:     19.82766     
  degrees
 Station #         118 : GW32.1G    epicentral distance:     20.60556     
  degrees
 Station #         119 : GW33.1G    epicentral distance:     22.77607     
  degrees
 Station #         120 : GW34.1G    epicentral distance:     22.14338     
  degrees
 Station #         121 : GW35.1G    epicentral distance:     21.11465     
  degrees
 Station #         122 : E2A0.1H    epicentral distance:     25.67041     
  degrees
 Station #         123 : E2A1.1H    epicentral distance:     26.12496     
  degrees
 Station #         124 : E2A2.1H    epicentral distance:     26.48464     
  degrees
 Station #         125 : E2A3.1H    epicentral distance:     27.02189     
  degrees
 Station #         126 : E2A4.1H    epicentral distance:     27.43889     
  degrees
 Station #         127 : E2A5.1H    epicentral distance:     27.86710     
  degrees
 Station #         128 : E2A7.1H    epicentral distance:     28.80176     
  degrees
 Station #         129 : E2A8.1H    epicentral distance:     29.24425     
  degrees
 Station #         130 : E2A9.1H    epicentral distance:     29.66067     
  degrees
 Station #         131 : E2B1.1H    epicentral distance:     26.33397     
  degrees
 Station #         132 : E2B2.1H    epicentral distance:     26.75104     
  degrees
 Station #         133 : E2B3.1H    epicentral distance:     27.17627     
  degrees
 Station #         134 : E2B4.1H    epicentral distance:     27.56591     
  degrees
 Station #         135 : E2B5.1H    epicentral distance:     28.05648     
  degrees
 Station #         136 : E2B6.1H    epicentral distance:     28.50475     
  degrees
 Station #         137 : E2B7.1H    epicentral distance:     28.91733     
  degrees
 Station #         138 : E2B8.1H    epicentral distance:     29.41907     
  degrees
 Station #         139 : E2B9.1H    epicentral distance:     29.83396     
  degrees
 Station #         140 : E2C0.1H    epicentral distance:     26.04539     
  degrees
 Station #         141 : E2C1.1H    epicentral distance:     26.49823     
  degrees
 Station #         142 : E2C2.1H    epicentral distance:     26.95491     
  degrees
 Station #         143 : E2C3.1H    epicentral distance:     27.36391     
  degrees
 Station #         144 : E2C4.1H    epicentral distance:     27.74334     
  degrees
 Station #         145 : E2C5.1H    epicentral distance:     28.21016     
  degrees
 Station #         146 : E2C6.1H    epicentral distance:     28.66243     
  degrees
 Station #         147 : E2C7.1H    epicentral distance:     29.09660     
  degrees
 Station #         148 : E2C8.1H    epicentral distance:     29.50855     
  degrees
 Station #         149 : E2C9.1H    epicentral distance:     29.94439     
  degrees
 Station #         150 : E2D1.1H    epicentral distance:     26.74492     
  degrees
 Station #         151 : E2D2.1H    epicentral distance:     27.15935     
  degrees
 Station #         152 : E2D3.1H    epicentral distance:     27.55723     
  degrees
 Station #         153 : E2D4.1H    epicentral distance:     27.96527     
  degrees
 Station #         154 : E2D5.1H    epicentral distance:     28.42698     
  degrees
 Station #         155 : E2D6.1H    epicentral distance:     28.83573     
  degrees
 Station #         156 : E2D7.1H    epicentral distance:     29.26890     
  degrees
 Station #         157 : E2D8.1H    epicentral distance:     29.69757     
  degrees
 Station #         158 : E2D9.1H    epicentral distance:     30.10331     
  degrees
 Station #         159 : E2E0.1H    epicentral distance:     26.46409     
  degrees
 Station #         160 : E2E1.1H    epicentral distance:     26.92817     
  degrees
 Station #         161 : E2E2.1H    epicentral distance:     27.34980     
  degrees
 Station #         162 : E2E3.1H    epicentral distance:     27.75123     
  degrees
 Station #         163 : E2E4.1H    epicentral distance:     28.15371     
  degrees
 Station #         164 : E2E5.1H    epicentral distance:     28.60367     
  degrees
 Station #         165 : E2E6.1H    epicentral distance:     29.01770     
  degrees
 Station #         166 : E2E7.1H    epicentral distance:     29.43060     
  degrees
 Station #         167 : E2E8.1H    epicentral distance:     29.83684     
  degrees
 Station #         168 : E2E9.1H    epicentral distance:     30.30992     
  degrees
 Station #         169 : E2F1.1H    epicentral distance:     27.07339     
  degrees
 Station #         170 : E2F2.1H    epicentral distance:     27.91554     
  degrees
 Station #         171 : E2F3.1H    epicentral distance:     28.77078     
  degrees
 Station #         172 : E2F4.1H    epicentral distance:     29.58955     
  degrees
 Station #         173 : E2F5.1H    epicentral distance:     30.41350     
  degrees
 Station #         174 : FA10.1K    epicentral distance:     12.78630     
  degrees
 Station #         175 : FA11.1K    epicentral distance:     12.96105     
  degrees
 Station #         176 : FA12.1K    epicentral distance:     12.91728     
  degrees
 Station #         177 : FA13.1K    epicentral distance:     13.03647     
  degrees
 Station #         178 : FA14.1K    epicentral distance:     13.04824     
  degrees
 Station #         179 : FA15.1K    epicentral distance:     13.16760     
  degrees
 Station #         180 : FA16.1K    epicentral distance:     13.18856     
  degrees
 Station #         181 : FA17.1K    epicentral distance:     13.37080     
  degrees
 Station #         182 : FA18.1K    epicentral distance:     13.33602     
  degrees
 Station #         183 : FA19.1K    epicentral distance:     13.54302     
  degrees
 Station #         184 : FA20.1K    epicentral distance:     13.07815     
  degrees
 Station #         185 : FA21.1K    epicentral distance:     13.27406     
  degrees
 Station #         186 : FA22.1K    epicentral distance:     13.17780     
  degrees
 Station #         187 : FA23.1K    epicentral distance:     13.34167     
  degrees
 Station #         188 : FA24.1K    epicentral distance:     13.29074     
  degrees
 Station #         189 : FA25.1K    epicentral distance:     13.45511     
  degrees
 Station #         190 : FA26.1K    epicentral distance:     13.46091     
  degrees
 Station #         191 : FA27.1K    epicentral distance:     13.62398     
  degrees
 Station #         192 : FA28.1K    epicentral distance:     13.60762     
  degrees
 Station #         193 : FA29.1K    epicentral distance:     13.77988     
  degrees
 Station #         194 : FA30.1K    epicentral distance:     13.35554     
  degrees
 Station #         195 : FA31.1K    epicentral distance:     13.49791     
  degrees
 Station #         196 : FA32.1K    epicentral distance:     13.63745     
  degrees
 Station #         197 : FA33.1K    epicentral distance:     13.57170     
  degrees
 Station #         198 : FA34.1K    epicentral distance:     13.57201     
  degrees
 Station #         199 : FA35.1K    epicentral distance:     13.68400     
  degrees
 Station #         200 : FA36.1K    epicentral distance:     13.70862     
  degrees
 Station #         201 : FA37.1K    epicentral distance:     13.88402     
  degrees
 Station #         202 : FA38.1K    epicentral distance:     13.88132     
  degrees
 Station #         203 : FA39.1K    epicentral distance:     14.05637     
  degrees
 Station #         204 : FB00.1K    epicentral distance:     13.72246     
  degrees
 Station #         205 : FB01.1K    epicentral distance:     13.99155     
  degrees
 Station #         206 : FB02.1K    epicentral distance:     13.92477     
  degrees
 Station #         207 : FB03.1K    epicentral distance:     14.11319     
  degrees
 Station #         208 : FB04.1K    epicentral distance:     14.01525     
  degrees
 Station #         209 : FB05.1K    epicentral distance:     14.20476     
  degrees
 Station #         210 : FB06.1K    epicentral distance:     14.33784     
  degrees
 Station #         211 : FB07.1K    epicentral distance:     14.37259     
  degrees
 Station #         212 : FB08.1K    epicentral distance:     14.54761     
  degrees
 Station #         213 : FB09.1K    epicentral distance:     14.68554     
  degrees
 Station #         214 : FC40.1K    epicentral distance:     13.73468     
  degrees
 Station #         215 : FC41.1K    epicentral distance:     13.73122     
  degrees
 Station #         216 : FC42.1K    epicentral distance:     14.28085     
  degrees
 Station #         217 : FC43.1K    epicentral distance:     14.23054     
  degrees
 Station #         218 : FC44.1K    epicentral distance:     14.54226     
  degrees
 Station #         219 : FC45.1K    epicentral distance:     14.31934     
  degrees
 Station #         220 : FC46.1K    epicentral distance:     14.50373     
  degrees
 Station #         221 : FC47.1K    epicentral distance:     14.91235     
  degrees
 Station #         222 : FC48.1K    epicentral distance:     14.98506     
  degrees
 Station #         223 : FC49.1K    epicentral distance:     14.66409     
  degrees
 Station #         224 : FD50.1K    epicentral distance:     14.54735     
  degrees
 Station #         225 : FD51.1K    epicentral distance:     14.74194     
  degrees
 Station #         226 : FD52.1K    epicentral distance:     14.74791     
  degrees
 Station #         227 : FD53.1K    epicentral distance:     15.03968     
  degrees
 Station #         228 : FD54.1K    epicentral distance:     14.95401     
  degrees
 Station #         229 : FD55.1K    epicentral distance:     14.91592     
  degrees
 Station #         230 : FD56.1K    epicentral distance:     15.12081     
  degrees
 Station #         231 : FD57.1K    epicentral distance:     15.18552     
  degrees
 Station #         232 : FD58.1K    epicentral distance:     15.01510     
  degrees
 Station #         233 : FD59.1K    epicentral distance:     15.12016     
  degrees
 Station #         234 : FD60.1K    epicentral distance:     15.29331     
  degrees
 Station #         235 : FD61.1K    epicentral distance:     15.28141     
  degrees
 Station #         236 : FD62.1K    epicentral distance:     15.44366     
  degrees
 Station #         237 : FD63.1K    epicentral distance:     15.44442     
  degrees
 Station #         238 : FD64.1K    epicentral distance:     15.40429     
  degrees
 Station #         239 : FD65.1K    epicentral distance:     15.54179     
  degrees
 Station #         240 : FD66.1K    epicentral distance:     15.62072     
  degrees
 Station #         241 : FD67.1K    epicentral distance:     15.51387     
  degrees
 Station #         242 : FD68.1K    epicentral distance:     15.76975     
  degrees
 Station #         243 : FD69.1K    epicentral distance:     15.67806     
  degrees
 Station #         244 : BA01.1P    epicentral distance:     30.65867     
  degrees
 Station #         245 : BA07.1P    epicentral distance:     32.77742     
  degrees
 Station #         246 : BA08.1P    epicentral distance:     32.19265     
  degrees
 Station #         247 : BA09.1P    epicentral distance:     31.60814     
  degrees
 Station #         248 : BA10.1P    epicentral distance:     29.94182     
  degrees
 Station #         249 : BA11.1P    epicentral distance:     29.64770     
  degrees
 Station #         250 : BA12.1P    epicentral distance:     32.04832     
  degrees
 Station #         251 : BA13.1P    epicentral distance:     31.62879     
  degrees
 Station #         252 : BA14.1P    epicentral distance:     31.06678     
  degrees
 Station #         253 : BA15.1P    epicentral distance:     30.69306     
  degrees
 Station #         254 : BA16.1P    epicentral distance:     30.64486     
  degrees
 Station #         255 : BA17.1P    epicentral distance:     30.72825     
  degrees
 Station #         256 : BA18.1P    epicentral distance:     30.03585     
  degrees
 Station #         257 : BA19.1P    epicentral distance:     30.05195     
  degrees
 Station #         258 : BA20.1P    epicentral distance:     29.47636     
  degrees
 Station #         259 : BA21.1P    epicentral distance:     28.87538     
  degrees
 Station #         260 : BA22.1P    epicentral distance:     28.38857     
  degrees
 Station #         261 : BA23.1P    epicentral distance:     28.70832     
  degrees
 Station #         262 : BA24.1P    epicentral distance:     27.90137     
  degrees
 Station #         263 : AQT01.1Q    epicentral distance:     22.52197     
  degrees
 Station #         264 : AQT02.1Q    epicentral distance:     21.75473     
  degrees
 Station #         265 : AQT03.1Q    epicentral distance:     21.00831     
  degrees
 Station #         266 : AQT04.1Q    epicentral distance:     20.69081     
  degrees
 Station #         267 : AQT05.1Q    epicentral distance:     19.96939     
  degrees
 Station #         268 : AQT06.1Q    epicentral distance:     18.22196     
  degrees
 Station #         269 : AQT07.1Q    epicentral distance:     18.87267     
  degrees
 Station #         270 : AQT08.1Q    epicentral distance:     19.13450     
  degrees
 Station #         271 : AQTA2.1Q    epicentral distance:     18.81890     
  degrees
 Station #         272 : AQTA3.1Q    epicentral distance:     19.03093     
  degrees
 Station #         273 : AQTA4.1Q    epicentral distance:     19.78157     
  degrees
 Station #         274 : AQTA5.1Q    epicentral distance:     20.12831     
  degrees
 Station #         275 : AQTA7.1Q    epicentral distance:     21.08014     
  degrees
 Station #         276 : AQTA8.1Q    epicentral distance:     21.78491     
  degrees
 Station #         277 : AQTB1.1Q    epicentral distance:     18.44085     
  degrees
 Station #         278 : AQTB2.1Q    epicentral distance:     19.00365     
  degrees
 Station #         279 : AQTB3.1Q    epicentral distance:     19.44645     
  degrees
 Station #         280 : AQTB4.1Q    epicentral distance:     20.12093     
  degrees
 Station #         281 : AQTB5.1Q    epicentral distance:     20.66892     
  degrees
 Station #         282 : AQTB6.1Q    epicentral distance:     21.19101     
  degrees
 Station #         283 : AQTB7.1Q    epicentral distance:     21.46105     
  degrees
 Station #         284 : AQTB8.1Q    epicentral distance:     22.16958     
  degrees
 Station #         285 : AQTC1.1Q    epicentral distance:     18.74064     
  degrees
 Station #         286 : AQTC2.1Q    epicentral distance:     19.46902     
  degrees
 Station #         287 : AQTC3.1Q    epicentral distance:     19.85232     
  degrees
 Station #         288 : AQTC4.1Q    epicentral distance:     20.50692     
  degrees
 Station #         289 : AQTC5.1Q    epicentral distance:     21.10251     
  degrees
 Station #         290 : AQTC6.1Q    epicentral distance:     21.58025     
  degrees
 Station #         291 : AQTC7.1Q    epicentral distance:     21.94115     
  degrees
 Station #         292 : AQTC8.1Q    epicentral distance:     22.52189     
  degrees
 Station #         293 : AQTD1.1Q    epicentral distance:     19.04211     
  degrees
 Station #         294 : AQTD5.1Q    epicentral distance:     21.24612     
  degrees
 Station #         295 : AQTD6.1Q    epicentral distance:     21.91274     
  degrees
 Station #         296 : AQTD7.1Q    epicentral distance:     22.28408     
  degrees
 Station #         297 : AQTD8.1Q    epicentral distance:     23.00066     
  degrees
 Station #         298 : AQTE2.1Q    epicentral distance:     20.35950     
  degrees
 Station #         299 : AQTE4.1Q    epicentral distance:     21.26235     
  degrees
 Station #         300 : AQTE5.1Q    epicentral distance:     21.56259     
  degrees
 Station #         301 : AQTE6.1Q    epicentral distance:     22.34248     
  degrees
 Station #         302 : AQTE7.1Q    epicentral distance:     22.66452     
  degrees
 Station #         303 : AQTE8.1Q    epicentral distance:     23.40839     
  degrees
 Station #         304 : AQTF1.1Q    epicentral distance:     19.98170     
  degrees
 Station #         305 : AQTF2.1Q    epicentral distance:     20.61069     
  degrees
 Station #         306 : AQTF3.1Q    epicentral distance:     20.80916     
  degrees
 Station #         307 : AQTF4.1Q    epicentral distance:     21.67577     
  degrees
 Station #         308 : AQTF5.1Q    epicentral distance:     21.98083     
  degrees
 Station #         309 : AQTF6.1Q    epicentral distance:     22.84677     
  degrees
 Station #         310 : AQTF7.1Q    epicentral distance:     23.10703     
  degrees
 Station #         311 : AQTF8.1Q    epicentral distance:     23.87342     
  degrees
 Station #         312 : AQTG1.1Q    epicentral distance:     20.19283     
  degrees
 Station #         313 : AQTG2.1Q    epicentral distance:     20.99364     
  degrees
 Station #         314 : AQTG3.1Q    epicentral distance:     21.18923     
  degrees
 Station #         315 : AQTG4.1Q    epicentral distance:     22.11359     
  degrees
 Station #         316 : AQTG5.1Q    epicentral distance:     22.36746     
  degrees
 Station #         317 : AQTG6.1Q    epicentral distance:     23.18301     
  degrees
 Station #         318 : AQTG7.1Q    epicentral distance:     23.46431     
  degrees
 Station #         319 : AQTG8.1Q    epicentral distance:     24.31360     
  degrees
 Station #         320 : AQTH1.1Q    epicentral distance:     20.58082     
  degrees
 Station #         321 : AQTH2.1Q    epicentral distance:     21.41402     
  degrees
 Station #         322 : AQTH3.1Q    epicentral distance:     21.57507     
  degrees
 Station #         323 : AQTH4.1Q    epicentral distance:     22.51637     
  degrees
 Station #         324 : AQTH5.1Q    epicentral distance:     22.84720     
  degrees
 Station #         325 : AQTH6.1Q    epicentral distance:     23.66967     
  degrees
 Station #         326 : AQTH7.1Q    epicentral distance:     23.91847     
  degrees
 Station #         327 : AQTH8.1Q    epicentral distance:     24.79581     
  degrees
 Station #         328 : AQTI1.1Q    epicentral distance:     20.96676     
  degrees
 Station #         329 : AQTI2.1Q    epicentral distance:     21.85696     
  degrees
 Station #         330 : AQTI3.1Q    epicentral distance:     22.17863     
  degrees
 Station #         331 : AQTI4.1Q    epicentral distance:     22.90202     
  degrees
 Station #         332 : AQTI5.1Q    epicentral distance:     23.31496     
  degrees
 Station #         333 : AQTI6.1Q    epicentral distance:     24.11710     
  degrees
 Station #         334 : AQTI7.1Q    epicentral distance:     24.40436     
  degrees
 Station #         335 : AQTI8.1Q    epicentral distance:     25.21415     
  degrees
 Station #         336 : AQTJ1.1Q    epicentral distance:     21.43307     
  degrees
 Station #         337 : AQTJ2.1Q    epicentral distance:     22.22908     
  degrees
 Station #         338 : AQTJ3.1Q    epicentral distance:     22.55820     
  degrees
 Station #         339 : AQTJ4.1Q    epicentral distance:     23.44676     
  degrees
 Station #         340 : AQTJ5.1Q    epicentral distance:     23.75405     
  degrees
 Station #         341 : AQTJ6.1Q    epicentral distance:     24.54850     
  degrees
 Station #         342 : AQTJ7.1Q    epicentral distance:     24.91512     
  degrees
 Station #         343 : AQTJ8.1Q    epicentral distance:     25.74289     
  degrees
 Station #         344 : AQTK1.1Q    epicentral distance:     21.79057     
  degrees
 Station #         345 : AQTK3.1Q    epicentral distance:     22.83643     
  degrees
 Station #         346 : AQTK5.1Q    epicentral distance:     23.95628     
  degrees
 Station #         347 : AQTL1.1Q    epicentral distance:     18.05956     
  degrees
 Station #         348 : AQTL2.1Q    epicentral distance:     19.59195     
  degrees
 Station #         349 : AQTL3.1Q    epicentral distance:     20.59787     
  degrees
 Station #         350 : AWAZ.2B    epicentral distance:     52.06557     
  degrees
 Station #         351 : BEEZ.2B    epicentral distance:     52.11766     
  degrees
 Station #         352 : JANZ.2B    epicentral distance:     52.26747     
  degrees
 Station #         353 : MNGZ.2B    epicentral distance:     52.37903     
  degrees
 Station #         354 : OUHZ.2B    epicentral distance:     52.32158     
  degrees
 Station #         355 : PETZ.2B    epicentral distance:     52.14399     
  degrees
 Station #         356 : RNGZ.2B    epicentral distance:     52.01897     
  degrees
 Station #         357 : SANZ.2B    epicentral distance:     52.13166     
  degrees
 Station #         358 : THPZ.2B    epicentral distance:     51.85122     
  degrees
 Station #         359 : TOMZ.2B    epicentral distance:     52.62199     
  degrees
 Station #         360 : TVSZ.2B    epicentral distance:     52.02687     
  degrees
 Station #         361 : YWRZ.2B    epicentral distance:     52.11499     
  degrees
 Station #         362 : M01.2F    epicentral distance:     41.75732      degree
 s
 Station #         363 : M02.2F    epicentral distance:     41.75304      degree
 s
 Station #         364 : M03.2F    epicentral distance:     41.74698      degree
 s
 Station #         365 : M04.2F    epicentral distance:     41.73849      degree
 s
 Station #         366 : M05.2F    epicentral distance:     41.73531      degree
 s
 Station #         367 : M06.2F    epicentral distance:     41.73912      degree
 s
 Station #         368 : M07.2F    epicentral distance:     41.73567      degree
 s
 Station #         369 : M08.2F    epicentral distance:     41.74130      degree
 s
 Station #         370 : M09.2F    epicentral distance:     41.73747      degree
 s
 Station #         371 : M10.2F    epicentral distance:     41.73404      degree
 s
 Station #         372 : M11.2F    epicentral distance:     41.73265      degree
 s
 Station #         373 : M12.2F    epicentral distance:     41.73002      degree
 s
 Station #         374 : M13.2F    epicentral distance:     41.72682      degree
 s
 Station #         375 : M14.2F    epicentral distance:     41.72578      degree
 s
 Station #         376 : M15.2F    epicentral distance:     41.72782      degree
 s
 Station #         377 : M16.2F    epicentral distance:     41.72050      degree
 s
 Station #         378 : M17.2F    epicentral distance:     41.72099      degree
 s
 Station #         379 : M18.2F    epicentral distance:     41.71763      degree
 s
 Station #         380 : M19.2F    epicentral distance:     41.72330      degree
 s
 Station #         381 : M20.2F    epicentral distance:     41.71399      degree
 s
 Station #         382 : M21.2F    epicentral distance:     41.71206      degree
 s
 Station #         383 : M22.2F    epicentral distance:     41.70501      degree
 s
 Station #         384 : M23.2F    epicentral distance:     41.70575      degree
 s
 Station #         385 : M24.2F    epicentral distance:     41.70515      degree
 s
 Station #         386 : M25.2F    epicentral distance:     41.71218      degree
 s
 Station #         387 : M26.2F    epicentral distance:     41.70273      degree
 s
 Station #         388 : M27.2F    epicentral distance:     41.70694      degree
 s
 Station #         389 : M28.2F    epicentral distance:     41.70086      degree
 s
 Station #         390 : M29.2F    epicentral distance:     41.69718      degree
 s
 Station #         391 : M30.2F    epicentral distance:     41.68678      degree
 s
 Station #         392 : M31.2F    epicentral distance:     41.69436      degree
 s
 Station #         393 : M32.2F    epicentral distance:     41.69190      degree
 s
 Station #         394 : M33.2F    epicentral distance:     41.68755      degree
 s
 Station #         395 : M34.2F    epicentral distance:     41.69283      degree
 s
 Station #         396 : M35.2F    epicentral distance:     41.68864      degree
 s
 Station #         397 : M36.2F    epicentral distance:     41.69880      degree
 s
 Station #         398 : M37.2F    epicentral distance:     41.69467      degree
 s
 Station #         399 : M38.2F    epicentral distance:     41.68918      degree
 s
 Station #         400 : M39.2F    epicentral distance:     41.68644      degree
 s
 Station #         401 : M40.2F    epicentral distance:     41.67340      degree
 s
 Station #         402 : M41.2F    epicentral distance:     41.65964      degree
 s
 Station #         403 : M42.2F    epicentral distance:     41.65696      degree
 s
 Station #         404 : M43.2F    epicentral distance:     41.66537      degree
 s
 Station #         405 : M44.2F    epicentral distance:     41.65643      degree
 s
 Station #         406 : M45.2F    epicentral distance:     41.65491      degree
 s
 Station #         407 : M46.2F    epicentral distance:     41.66658      degree
 s
 Station #         408 : M47.2F    epicentral distance:     41.67727      degree
 s
 Station #         409 : M48.2F    epicentral distance:     41.67284      degree
 s
 Station #         410 : M49.2F    epicentral distance:     41.65919      degree
 s
 Station #         411 : M50.2F    epicentral distance:     41.65751      degree
 s
 Station #         412 : M55.2F    epicentral distance:     41.66255      degree
 s
 Station #         413 : M56.2F    epicentral distance:     41.65076      degree
 s
 Station #         414 : M57.2F    epicentral distance:     41.62337      degree
 s
 Station #         415 : M58.2F    epicentral distance:     41.63153      degree
 s
 Station #         416 : M59.2F    epicentral distance:     41.62698      degree
 s
 Station #         417 : M60.2F    epicentral distance:     41.63126      degree
 s
 Station #         418 : M61.2F    epicentral distance:     41.63331      degree
 s
 Station #         419 : M62.2F    epicentral distance:     41.63684      degree
 s
 Station #         420 : M63.2F    epicentral distance:     41.64085      degree
 s
 Station #         421 : M64.2F    epicentral distance:     41.64642      degree
 s
 Station #         422 : M65.2F    epicentral distance:     41.65802      degree
 s
 Station #         423 : M66.2F    epicentral distance:     41.65891      degree
 s
 Station #         424 : N01.2F    epicentral distance:     42.76379      degree
 s
 Station #         425 : N02.2F    epicentral distance:     42.76167      degree
 s
 Station #         426 : N03.2F    epicentral distance:     42.75068      degree
 s
 Station #         427 : N04.2F    epicentral distance:     42.74379      degree
 s
 Station #         428 : N05.2F    epicentral distance:     42.72370      degree
 s
 Station #         429 : N06.2F    epicentral distance:     42.70819      degree
 s
 Station #         430 : N07.2F    epicentral distance:     42.69607      degree
 s
 Station #         431 : N08.2F    epicentral distance:     42.68375      degree
 s
 Station #         432 : N09.2F    epicentral distance:     42.66293      degree
 s
 Station #         433 : N10.2F    epicentral distance:     42.64626      degree
 s
 Station #         434 : N11.2F    epicentral distance:     42.63700      degree
 s
 Station #         435 : N12.2F    epicentral distance:     42.62467      degree
 s
 Station #         436 : N13.2F    epicentral distance:     42.61672      degree
 s
 Station #         437 : N14.2F    epicentral distance:     42.60667      degree
 s
 Station #         438 : N15.2F    epicentral distance:     42.59851      degree
 s
 Station #         439 : N16.2F    epicentral distance:     42.60433      degree
 s
 Station #         440 : N17.2F    epicentral distance:     42.58561      degree
 s
 Station #         441 : N18.2F    epicentral distance:     42.58202      degree
 s
 Station #         442 : N19.2F    epicentral distance:     42.57492      degree
 s
 Station #         443 : N20.2F    epicentral distance:     42.57098      degree
 s
 Station #         444 : N21.2F    epicentral distance:     42.56317      degree
 s
 Station #         445 : N22.2F    epicentral distance:     42.56800      degree
 s
 Station #         446 : N24.2F    epicentral distance:     42.57873      degree
 s
 Station #         447 : N25.2F    epicentral distance:     42.57482      degree
 s
 Station #         448 : N26.2F    epicentral distance:     42.56001      degree
 s
 Station #         449 : N27.2F    epicentral distance:     42.55013      degree
 s
 Station #         450 : N28.2F    epicentral distance:     42.54952      degree
 s
 Station #         451 : N29.2F    epicentral distance:     42.55920      degree
 s
 Station #         452 : N30.2F    epicentral distance:     42.53377      degree
 s
 Station #         453 : N31.2F    epicentral distance:     42.51421      degree
 s
 Station #         454 : N32.2F    epicentral distance:     42.48404      degree
 s
 Station #         455 : N33.2F    epicentral distance:     42.45499      degree
 s
 Station #         456 : N34.2F    epicentral distance:     42.44147      degree
 s
 Station #         457 : N35.2F    epicentral distance:     42.43240      degree
 s
 Station #         458 : N36.2F    epicentral distance:     42.40424      degree
 s
 Station #         459 : N37.2F    epicentral distance:     42.41014      degree
 s
 Station #         460 : N38.2F    epicentral distance:     42.42837      degree
 s
 Station #         461 : N39.2F    epicentral distance:     42.42260      degree
 s
 Station #         462 : N40.2F    epicentral distance:     42.41681      degree
 s
 Station #         463 : N45.2F    epicentral distance:     42.37237      degree
 s
 Station #         464 : N46.2F    epicentral distance:     42.38208      degree
 s
 Station #         465 : N47.2F    epicentral distance:     42.38350      degree
 s
 Station #         466 : N48.2F    epicentral distance:     42.38839      degree
 s
 Station #         467 : N49.2F    epicentral distance:     42.37695      degree
 s
 Station #         468 : N50.2F    epicentral distance:     42.36031      degree
 s
 Station #         469 : S05.2F    epicentral distance:     41.41556      degree
 s
 Station #         470 : S06.2F    epicentral distance:     41.41014      degree
 s
 Station #         471 : S07.2F    epicentral distance:     41.39934      degree
 s
 Station #         472 : S08.2F    epicentral distance:     41.39825      degree
 s
 Station #         473 : S09.2F    epicentral distance:     41.39134      degree
 s
 Station #         474 : S10.2F    epicentral distance:     41.38266      degree
 s
 Station #         475 : S11.2F    epicentral distance:     41.36462      degree
 s
 Station #         476 : S12.2F    epicentral distance:     41.36453      degree
 s
 Station #         477 : S13.2F    epicentral distance:     41.35308      degree
 s
 Station #         478 : S14.2F    epicentral distance:     41.35146      degree
 s
 Station #         479 : S15.2F    epicentral distance:     41.33614      degree
 s
 Station #         480 : S16.2F    epicentral distance:     41.32877      degree
 s
 Station #         481 : S17.2F    epicentral distance:     41.33402      degree
 s
 Station #         482 : S18.2F    epicentral distance:     41.32105      degree
 s
 Station #         483 : S19.2F    epicentral distance:     41.30873      degree
 s
 Station #         484 : S20.2F    epicentral distance:     41.32416      degree
 s
 Station #         485 : S21.2F    epicentral distance:     41.31602      degree
 s
 Station #         486 : S22.2F    epicentral distance:     41.30170      degree
 s
 Station #         487 : S23.2F    epicentral distance:     41.28080      degree
 s
 Station #         488 : S24.2F    epicentral distance:     41.27648      degree
 s
 Station #         489 : S25.2F    epicentral distance:     41.27614      degree
 s
 Station #         490 : S26.2F    epicentral distance:     41.25962      degree
 s
 Station #         491 : S27.2F    epicentral distance:     41.26461      degree
 s
 Station #         492 : S28.2F    epicentral distance:     41.21366      degree
 s
 Station #         493 : S29.2F    epicentral distance:     41.20639      degree
 s
 Station #         494 : S30.2F    epicentral distance:     41.19430      degree
 s
 Station #         495 : S31.2F    epicentral distance:     41.19571      degree
 s
 Station #         496 : S32.2F    epicentral distance:     41.19051      degree
 s
 Station #         497 : S33.2F    epicentral distance:     41.16962      degree
 s
 Station #         498 : S34.2F    epicentral distance:     41.17307      degree
 s
 Station #         499 : S40.2F    epicentral distance:     41.18687      degree
 s
 Station #         500 : S41.2F    epicentral distance:     41.18261      degree
 s
 Station #         501 : S42.2F    epicentral distance:     41.18530      degree
 s
 Station #         502 : S43.2F    epicentral distance:     41.18099      degree
 s
 Station #         503 : S44.2F    epicentral distance:     41.16138      degree
 s
 Station #         504 : S45.2F    epicentral distance:     41.16303      degree
 s
 Station #         505 : S47.2F    epicentral distance:     41.14179      degree
 s
 Station #         506 : S48.2F    epicentral distance:     41.14161      degree
 s
 Station #         507 : S50.2F    epicentral distance:     41.11207      degree
 s
 Station #         508 : S51.2F    epicentral distance:     41.09220      degree
 s
 Station #         509 : S52.2F    epicentral distance:     41.07856      degree
 s
 Station #         510 : S53.2F    epicentral distance:     41.06140      degree
 s
 Station #         511 : S54.2F    epicentral distance:     41.05315      degree
 s
 Station #         512 : S55.2F    epicentral distance:     41.04815      degree
 s
 Station #         513 : S56.2F    epicentral distance:     41.03928      degree
 s
 Station #         514 : S57.2F    epicentral distance:     41.04049      degree
 s
 Station #         515 : S58.2F    epicentral distance:     41.03580      degree
 s
 Station #         516 : S59.2F    epicentral distance:     41.02474      degree
 s
 Station #         517 : S61.2F    epicentral distance:     41.01027      degree
 s
 Station #         518 : S62.2F    epicentral distance:     40.98423      degree
 s
 Station #         519 : S63.2F    epicentral distance:     40.97530      degree
 s
 Station #         520 : S66.2F    epicentral distance:     40.94160      degree
 s
 Station #         521 : S67.2F    epicentral distance:     40.93642      degree
 s
 Station #         522 : SS01.2F    epicentral distance:     40.63406     
  degrees
 Station #         523 : SS02.2F    epicentral distance:     40.63466     
  degrees
 Station #         524 : SS03.2F    epicentral distance:     40.63818     
  degrees
 Station #         525 : SS04.2F    epicentral distance:     40.63017     
  degrees
 Station #         526 : SS05.2F    epicentral distance:     40.63415     
  degrees
 Station #         527 : SS06.2F    epicentral distance:     40.64052     
  degrees
 Station #         528 : SS07.2F    epicentral distance:     40.63933     
  degrees
 Station #         529 : SS08.2F    epicentral distance:     40.62030     
  degrees
 Station #         530 : SS09.2F    epicentral distance:     40.63069     
  degrees
 Station #         531 : SS10.2F    epicentral distance:     40.63173     
  degrees
 Station #         532 : SS11.2F    epicentral distance:     40.63073     
  degrees
 Station #         533 : SS12.2F    epicentral distance:     40.63203     
  degrees
 Station #         534 : SS13.2F    epicentral distance:     40.63103     
  degrees
 Station #         535 : SS14.2F    epicentral distance:     40.62927     
  degrees
 Station #         536 : SS15.2F    epicentral distance:     40.63830     
  degrees
 Station #         537 : SS16.2F    epicentral distance:     40.63853     
  degrees
 Station #         538 : SS17.2F    epicentral distance:     40.62659     
  degrees
 Station #         539 : SS18.2F    epicentral distance:     40.63231     
  degrees
 Station #         540 : SS19.2F    epicentral distance:     40.63371     
  degrees
 Station #         541 : SS21.2F    epicentral distance:     40.64647     
  degrees
 Station #         542 : SS22.2F    epicentral distance:     40.63271     
  degrees
 Station #         543 : SS23.2F    epicentral distance:     40.65407     
  degrees
 Station #         544 : SS24.2F    epicentral distance:     40.65314     
  degrees
 Station #         545 : SS25.2F    epicentral distance:     40.65280     
  degrees
 Station #         546 : SS26.2F    epicentral distance:     40.64783     
  degrees
 Station #         547 : SS27.2F    epicentral distance:     40.63210     
  degrees
 Station #         548 : SS28.2F    epicentral distance:     40.63537     
  degrees
 Station #         549 : SS29.2F    epicentral distance:     40.62439     
  degrees
 Station #         550 : SS30.2F    epicentral distance:     40.62269     
  degrees
 Station #         551 : SS37.2F    epicentral distance:     40.64541     
  degrees
 Station #         552 : SS38.2F    epicentral distance:     40.65528     
  degrees
 Station #         553 : SS39.2F    epicentral distance:     40.65907     
  degrees
 Station #         554 : SS40.2F    epicentral distance:     40.66527     
  degrees
 Station #         555 : SS41.2F    epicentral distance:     40.63367     
  degrees
 Station #         556 : SS42.2F    epicentral distance:     40.64718     
  degrees
 Station #         557 : SS43.2F    epicentral distance:     40.64211     
  degrees
 Station #         558 : SS44.2F    epicentral distance:     40.63806     
  degrees
 Station #         559 : SS45.2F    epicentral distance:     40.64970     
  degrees
 Station #         560 : SS46.2F    epicentral distance:     40.64221     
  degrees
 Station #         561 : SS47.2F    epicentral distance:     40.66901     
  degrees
 Station #         562 : VANGO.3A    epicentral distance:     44.62617     
  degrees
 Station #         563 : VASAV.3A    epicentral distance:     44.88463     
  degrees
 Station #         564 : VAVUN.3A    epicentral distance:     44.76675     
  degrees
 Station #         565 : VBOKI.3A    epicentral distance:     44.91310     
  degrees
 Station #         566 : VBUTM.3A    epicentral distance:     44.72465     
  degrees
 Station #         567 : VEBEN.3A    epicentral distance:     44.64528     
  degrees
 Station #         568 : VESPI.3A    epicentral distance:     44.79886     
  degrees
 Station #         569 : VIRHO.3A    epicentral distance:     44.90091     
  degrees
 Station #         570 : VKOLH.3A    epicentral distance:     44.89553     
  degrees
 Station #         571 : VLAKA.3A    epicentral distance:     44.99460     
  degrees
 Station #         572 : VLEBE.3A    epicentral distance:     44.66948     
  degrees
 Station #         573 : VLEVI.3A    epicentral distance:     44.82443     
  degrees
 Station #         574 : VNARW.3A    epicentral distance:     44.94090     
  degrees
 Station #         575 : VPOTO.3A    epicentral distance:     45.01429     
  degrees
 Station #         576 : VSALE.3A    epicentral distance:     44.51199     
  degrees
 Station #         577 : VSARA.3A    epicentral distance:     44.74086     
  degrees
 Station #         578 : VSULE.3A    epicentral distance:     44.43717     
  degrees
 Station #         579 : VTAMB.3A    epicentral distance:     44.77197     
  degrees
 Station #         580 : VTURT.3A    epicentral distance:     44.88715     
  degrees
 Station #         581 : VWUSI.3A    epicentral distance:     44.39908     
  degrees
 Station #         582 : BC12.3C    epicentral distance:     53.96535     
  degrees
 Station #         583 : BC30.3C    epicentral distance:     53.87140     
  degrees
 Station #         584 : BS01.3C    epicentral distance:     53.96130     
  degrees
 Station #         585 : BS03.3C    epicentral distance:     53.93305     
  degrees
 Station #         586 : BS04.3C    epicentral distance:     53.92240     
  degrees
 Station #         587 : BS05.3C    epicentral distance:     53.90305     
  degrees
 Station #         588 : BS06.3C    epicentral distance:     53.88395     
  degrees
 Station #         589 : BS07.3C    epicentral distance:     53.86814     
  degrees
 Station #         590 : BS08.3C    epicentral distance:     53.84512     
  degrees
 Station #         591 : BS09.3C    epicentral distance:     53.83106     
  degrees
 Station #         592 : BS10.3C    epicentral distance:     53.82065     
  degrees
 Station #         593 : BS11.3C    epicentral distance:     53.80154     
  degrees
 Station #         594 : BS12.3C    epicentral distance:     53.78420     
  degrees
 Station #         595 : BS13.3C    epicentral distance:     53.96685     
  degrees
 Station #         596 : BS14.3C    epicentral distance:     53.95258     
  degrees
 Station #         597 : BS15.3C    epicentral distance:     53.94585     
  degrees
 Station #         598 : BS16.3C    epicentral distance:     53.91574     
  degrees
 Station #         599 : BS17.3C    epicentral distance:     53.90654     
  degrees
 Station #         600 : BS18.3C    epicentral distance:     53.88605     
  degrees
 Station #         601 : BS19.3C    epicentral distance:     53.87537     
  degrees
 Station #         602 : BS20.3C    epicentral distance:     53.85379     
  degrees
 Station #         603 : BS21.3C    epicentral distance:     53.84604     
  degrees
 Station #         604 : BS25.3C    epicentral distance:     53.97486     
  degrees
 Station #         605 : BS26.3C    epicentral distance:     53.96273     
  degrees
 Station #         606 : BS27.3C    epicentral distance:     53.94285     
  degrees
 Station #         607 : BS28.3C    epicentral distance:     53.93385     
  degrees
 Station #         608 : BS30.3C    epicentral distance:     53.90145     
  degrees
 Station #         609 : BS31.3C    epicentral distance:     53.88132     
  degrees
 Station #         610 : BS32.3C    epicentral distance:     53.86398     
  degrees
 Station #         611 : BS34.3C    epicentral distance:     53.82763     
  degrees
 Station #         612 : BS37.3C    epicentral distance:     53.98761     
  degrees
 Station #         613 : BS38.3C    epicentral distance:     53.97142     
  degrees
 Station #         614 : BS39.3C    epicentral distance:     53.95394     
  degrees
 Station #         615 : BS40.3C    epicentral distance:     53.94059     
  degrees
 Station #         616 : BS41.3C    epicentral distance:     53.92571     
  degrees
 Station #         617 : BS42.3C    epicentral distance:     53.90348     
  degrees
 Station #         618 : BS43.3C    epicentral distance:     53.88791     
  degrees
 Station #         619 : BS44.3C    epicentral distance:     53.87482     
  degrees
 Station #         620 : BS46.3C    epicentral distance:     53.84054     
  degrees
 Station #         621 : BS47.3C    epicentral distance:     53.83043     
  degrees
 Station #         622 : BS49.3C    epicentral distance:     53.99285     
  degrees
 Station #         623 : BS50.3C    epicentral distance:     53.98545     
  degrees
 Station #         624 : BS51.3C    epicentral distance:     53.96129     
  degrees
 Station #         625 : BS52.3C    epicentral distance:     53.94073     
  degrees
 Station #         626 : BS53.3C    epicentral distance:     53.92924     
  degrees
 Station #         627 : BS54.3C    epicentral distance:     53.91552     
  degrees
 Station #         628 : BS55.3C    epicentral distance:     53.89186     
  degrees
 Station #         629 : BS59.3C    epicentral distance:     53.83757     
  degrees
 Station #         630 : BS60.3C    epicentral distance:     53.81580     
  degrees
 Station #         631 : YBAL.3E    epicentral distance:     46.41921     
  degrees
 Station #         632 : YIB2.3E    epicentral distance:     46.41738     
  degrees
 Station #         633 : YIF1.3E    epicentral distance:     46.41939     
  degrees
 Station #         634 : YIF2.3E    epicentral distance:     46.42020     
  degrees
 Station #         635 : YIF3.3E    epicentral distance:     46.41992     
  degrees
 Station #         636 : YIF4.3E    epicentral distance:     46.41782     
  degrees
 Station #         637 : YIF5.3E    epicentral distance:     46.41571     
  degrees
 Station #         638 : YIF6.3E    epicentral distance:     46.41259     
  degrees
 Station #         639 : MAL01.3G    epicentral distance:     15.30393     
  degrees
 Station #         640 : MAL02.3G    epicentral distance:     15.32506     
  degrees
 Station #         641 : MAL03.3G    epicentral distance:     15.34405     
  degrees
 Station #         642 : MAL04.3G    epicentral distance:     15.36140     
  degrees
 Station #         643 : MAL05.3G    epicentral distance:     15.38675     
  degrees
 Station #         644 : MAL06.3G    epicentral distance:     15.41319     
  degrees
 Station #         645 : MAL07.3G    epicentral distance:     15.43951     
  degrees
 Station #         646 : MAL08.3G    epicentral distance:     15.46575     
  degrees
 Station #         647 : MAL09.3G    epicentral distance:     15.48709     
  degrees
 Station #         648 : MAL10.3G    epicentral distance:     15.51367     
  degrees
 Station #         649 : MAL11.3G    epicentral distance:     15.54045     
  degrees
 Station #         650 : MAL12.3G    epicentral distance:     15.56714     
  degrees
 Station #         651 : MAL13.3G    epicentral distance:     15.59336     
  degrees
 Station #         652 : MAL14.3G    epicentral distance:     15.61605     
  degrees
 Station #         653 : MAL15.3G    epicentral distance:     15.63537     
  degrees
 Station #         654 : MAL16.3G    epicentral distance:     15.66590     
  degrees
 Station #         655 : MAL17.3G    epicentral distance:     15.68005     
  degrees
 Station #         656 : MAL18.3G    epicentral distance:     15.69382     
  degrees
 Station #         657 : MAL19.3G    epicentral distance:     15.70197     
  degrees
 Station #         658 : MAL20.3G    epicentral distance:     15.71885     
  degrees
 Station #         659 : MAL21.3G    epicentral distance:     15.73822     
  degrees
 Station #         660 : MAL22.3G    epicentral distance:     15.75817     
  degrees
 Station #         661 : MAL23.3G    epicentral distance:     15.78308     
  degrees
 Station #         662 : MAL24.3G    epicentral distance:     15.80158     
  degrees
 Station #         663 : MAL25.3G    epicentral distance:     15.82786     
  degrees
 Station #         664 : MAL26.3G    epicentral distance:     15.85805     
  degrees
 Station #         665 : MAL27.3G    epicentral distance:     15.88645     
  degrees
 Station #         666 : MAL28.3G    epicentral distance:     15.91460     
  degrees
 Station #         667 : MAL29.3G    epicentral distance:     15.94003     
  degrees
 Station #         668 : MAL30.3G    epicentral distance:     15.96590     
  degrees
 Station #         669 : MAL31.3G    epicentral distance:     15.99467     
  degrees
 Station #         670 : MAL32.3G    epicentral distance:     16.02406     
  degrees
 Station #         671 : MAL33.3G    epicentral distance:     16.05630     
  degrees
 Station #         672 : MAL34.3G    epicentral distance:     16.08698     
  degrees
 Station #         673 : MAL35.3G    epicentral distance:     16.11773     
  degrees
 Station #         674 : MAL36.3G    epicentral distance:     16.14948     
  degrees
 Station #         675 : MAL37.3G    epicentral distance:     16.18007     
  degrees
 Station #         676 : MAL38.3G    epicentral distance:     16.21112     
  degrees
 Station #         677 : MAL39.3G    epicentral distance:     16.23958     
  degrees
 Station #         678 : MAL40.3G    epicentral distance:     16.27292     
  degrees
 Station #         679 : MAL41.3G    epicentral distance:     16.30042     
  degrees
 Station #         680 : MAL42.3G    epicentral distance:     16.32903     
  degrees
 Station #         681 : MAL43.3G    epicentral distance:     16.36483     
  degrees
 Station #         682 : MAL44.3G    epicentral distance:     16.40737     
  degrees
 Station #         683 : MAL45.3G    epicentral distance:     16.43725     
  degrees
 Station #         684 : MAL46.3G    epicentral distance:     16.45671     
  degrees
 Station #         685 : MAL47.3G    epicentral distance:     16.48388     
  degrees
 Station #         686 : MAL48.3G    epicentral distance:     16.51053     
  degrees
 Station #         687 : MAL49.3G    epicentral distance:     16.53816     
  degrees
 Station #         688 : MAL50.3G    epicentral distance:     16.56614     
  degrees
 Station #         689 : MAL51.3G    epicentral distance:     16.59323     
  degrees
 Station #         690 : MAL52.3G    epicentral distance:     16.61972     
  degrees
 Station #         691 : MAL53.3G    epicentral distance:     16.63667     
  degrees
 Station #         692 : MAL54.3G    epicentral distance:     16.65792     
  degrees
 Station #         693 : MAL56.3G    epicentral distance:     16.71327     
  degrees
 Station #         694 : MAL57.3G    epicentral distance:     16.74143     
  degrees
 Station #         695 : MAL58.3G    epicentral distance:     16.77020     
  degrees
 Station #         696 : MAL59.3G    epicentral distance:     16.79792     
  degrees
 Station #         697 : MAL60.3G    epicentral distance:     16.82650     
  degrees
 Station #         698 : MAL61.3G    epicentral distance:     16.85629     
  degrees
 Station #         699 : MAL62.3G    epicentral distance:     16.88758     
  degrees
 Station #         700 : MAL64.3G    epicentral distance:     16.94396     
  degrees
 Station #         701 : MAL65.3G    epicentral distance:     16.97517     
  degrees
 Station #         702 : MAL66.3G    epicentral distance:     17.00093     
  degrees
 Station #         703 : MAL67.3G    epicentral distance:     17.03061     
  degrees
 Station #         704 : MAL68.3G    epicentral distance:     17.05046     
  degrees
 Station #         705 : AKA02.3O    epicentral distance:     7.660528     
  degrees
 Station #         706 : AKA03.3O    epicentral distance:     6.837599     
  degrees
 Station #         707 : AKA05.3O    epicentral distance:     6.827505     
  degrees
 Station #         708 : AKA10.3O    epicentral distance:     7.967143     
  degrees
 Station #         709 : AKB03.3O    epicentral distance:     8.831959     
  degrees
 Station #         710 : AKB06.3O    epicentral distance:     6.364547     
  degrees
 Station #         711 : AKB07.3O    epicentral distance:     5.568483     
  degrees
 Station #         712 : AKB10.3O    epicentral distance:     6.313920     
  degrees
 Station #         713 : AQ3A1.4J    epicentral distance:     21.79057     
  degrees
 Station #         714 : AQ3A2.4J    epicentral distance:     22.32920     
  degrees
 Station #         715 : AQ3A3.4J    epicentral distance:     22.85797     
  degrees
 Station #         716 : AQ3A4.4J    epicentral distance:     23.40519     
  degrees
 Station #         717 : AQ3A5.4J    epicentral distance:     23.95620     
  degrees
 Station #         718 : AQ3A6.4J    epicentral distance:     24.49146     
  degrees
 Station #         719 : AQ3A7.4J    epicentral distance:     25.06384     
  degrees
 Station #         720 : AQ3B1.4J    epicentral distance:     21.99022     
  degrees
 Station #         721 : AQ3B2.4J    epicentral distance:     22.44050     
  degrees
 Station #         722 : AQ3B3.4J    epicentral distance:     22.98027     
  degrees
 Station #         723 : AQ3B4.4J    epicentral distance:     23.57937     
  degrees
 Station #         724 : AQ3B5.4J    epicentral distance:     24.08645     
  degrees
 Station #         725 : AQ3B6.4J    epicentral distance:     24.61830     
  degrees
 Station #         726 : AQ3C1.4J    epicentral distance:     22.14458     
  degrees
 Station #         727 : AQ3C2.4J    epicentral distance:     22.68148     
  degrees
 Station #         728 : AQ3C3.4J    epicentral distance:     23.19633     
  degrees
 Station #         729 : AQ3C4.4J    epicentral distance:     23.72878     
  degrees
 Station #         730 : AQ3C5.4J    epicentral distance:     24.25525     
  degrees
 Station #         731 : AQ3C6.4J    epicentral distance:     24.75281     
  degrees
 Station #         732 : AQ3C7.4J    epicentral distance:     25.33513     
  degrees
 Station #         733 : AQ3D1.4J    epicentral distance:     22.35157     
  degrees
 Station #         734 : AQ3D2.4J    epicentral distance:     22.71532     
  degrees
 Station #         735 : AQ3D3.4J    epicentral distance:     23.34394     
  degrees
 Station #         736 : AQ3D4.4J    epicentral distance:     23.87666     
  degrees
 Station #         737 : AQ3D5.4J    epicentral distance:     24.43271     
  degrees
 Station #         738 : AQ3D6.4J    epicentral distance:     24.90241     
  degrees
 Station #         739 : AQ3E0.4J    epicentral distance:     21.80239     
  degrees
 Station #         740 : AQ3E1.4J    epicentral distance:     22.56894     
  degrees
 Station #         741 : AQ3E2.4J    epicentral distance:     23.04079     
  degrees
 Station #         742 : AQ3E3.4J    epicentral distance:     23.55229     
  degrees
 Station #         743 : AQ3E4.4J    epicentral distance:     24.05746     
  degrees
 Station #         744 : AQ3E5.4J    epicentral distance:     24.58990     
  degrees
 Station #         745 : AQ3E6.4J    epicentral distance:     25.08341     
  degrees
 Station #         746 : AQ3E7.4J    epicentral distance:     25.64684     
  degrees
 Station #         747 : AQ3F1.4J    epicentral distance:     22.78829     
  degrees
 Station #         748 : AQ3F2.4J    epicentral distance:     23.23367     
  degrees
 Station #         749 : AQ3F3.4J    epicentral distance:     23.72533     
  degrees
 Station #         750 : AQ3F4.4J    epicentral distance:     24.25582     
  degrees
 Station #         751 : AQ3F5.4J    epicentral distance:     24.73458     
  degrees
 Station #         752 : AQ3F6.4J    epicentral distance:     25.27397     
  degrees
 Station #         753 : AQ3G0.4J    epicentral distance:     22.30037     
  degrees
 Station #         754 : AQ3G1.4J    epicentral distance:     22.98347     
  degrees
 Station #         755 : AQ3G2.4J    epicentral distance:     23.45733     
  degrees
 Station #         756 : AQ3G3.4J    epicentral distance:     23.93216     
  degrees
 Station #         757 : AQ3G4.4J    epicentral distance:     24.44839     
  degrees
 Station #         758 : AQ3G5.4J    epicentral distance:     24.94367     
  degrees
 Station #         759 : AQ3G6.4J    epicentral distance:     25.43524     
  degrees
 Station #         760 : AQ3G7.4J    epicentral distance:     25.92627     
  degrees
 Station #         761 : AQ3H1.4J    epicentral distance:     23.10850     
  degrees
 Station #         762 : AQ3H2.4J    epicentral distance:     24.06926     
  degrees
 Station #         763 : AQ3H3.4J    epicentral distance:     24.85342     
  degrees
 Station #         764 : AQ3H4.4J    epicentral distance:     25.67041     
  degrees
 Station #         765 : ARAWA.5A    epicentral distance:     36.37917     
  degrees
 Station #         766 : BUIN.5A    epicentral distance:     36.30290     
  degrees
 Station #         767 : BUKA.5A    epicentral distance:     35.88396     
  degrees
 Station #         768 : BUTIA.5A    epicentral distance:     31.41936     
  degrees
 Station #         769 : KAVI.5A    epicentral distance:     33.68078     
  degrees
 Station #         770 : KIMBE.5A    epicentral distance:     31.71195     
  degrees
 Station #         771 : LASU.5A    epicentral distance:     34.91978     
  degrees
 Station #         772 : LEON.5A    epicentral distance:     65.95619     
  degrees
 Station #         773 : LEOS.5A    epicentral distance:     67.25619     
  degrees
 Station #         774 : LIHIR.5A    epicentral distance:     35.03526     
  degrees
 Station #         775 : NOAA.5A    epicentral distance:     66.17476     
  degrees
 Station #         776 : SAVE.5A    epicentral distance:     64.69880     
  degrees
 Station #         777 : SAVW.5A    epicentral distance:     64.36260     
  degrees
 Station #         778 : AEB01.5G    epicentral distance:     18.44686     
  degrees
 Station #         779 : AEB02.5G    epicentral distance:     15.96045     
  degrees
 Station #         780 : AEB03.5G    epicentral distance:     16.81615     
  degrees
 Station #         781 : AEB04.5G    epicentral distance:     17.67462     
  degrees
 Station #         782 : AEB05.5G    epicentral distance:     17.45121     
  degrees
 Station #         783 : AEB06.5G    epicentral distance:     18.14439     
  degrees
 Station #         784 : AEB07.5G    epicentral distance:     19.53051     
  degrees
 Station #         785 : AEB08.5G    epicentral distance:     19.31828     
  degrees
 Station #         786 : AEB09.5G    epicentral distance:     19.70382     
  degrees
 Station #         787 : AEB10.5G    epicentral distance:     18.79552     
  degrees
 Station #         788 : AEB11.5G    epicentral distance:     19.54144     
  degrees
 Station #         789 : AEB12.5G    epicentral distance:     19.83078     
  degrees
 Station #         790 : AEB13.5G    epicentral distance:     19.89364     
  degrees
 Station #         791 : AEB14.5G    epicentral distance:     19.55191     
  degrees
 Station #         792 : AEB15.5G    epicentral distance:     18.67754     
  degrees
 Station #         793 : AEB16.5G    epicentral distance:     18.19404     
  degrees
 Station #         794 : AEB17.5G    epicentral distance:     17.49475     
  degrees
 Station #         795 : AEB18.5G    epicentral distance:     16.51053     
  degrees
 Station #         796 : AEB19.5G    epicentral distance:     16.01827     
  degrees
 Station #         797 : AEB20.5G    epicentral distance:     15.43080     
  degrees
 Station #         798 : AES01.5G    epicentral distance:     14.88192     
  degrees
 Station #         799 : AES02.5G    epicentral distance:     15.36988     
  degrees
 Station #         800 : AES03.5G    epicentral distance:     15.82783     
  degrees
 Station #         801 : AES04.5G    epicentral distance:     17.26430     
  degrees
 Station #         802 : AES05.5G    epicentral distance:     17.40485     
  degrees
 Station #         803 : AES06.5G    epicentral distance:     18.26012     
  degrees
 Station #         804 : AES07.5G    epicentral distance:     15.63870     
  degrees
 Station #         805 : AES08.5G    epicentral distance:     16.19429     
  degrees
 Station #         806 : AES09.5G    epicentral distance:     17.05047     
  degrees
 Station #         807 : AES10.5G    epicentral distance:     17.86597     
  degrees
 Station #         808 : AES11.5G    epicentral distance:     17.61356     
  degrees
 Station #         809 : AES12.5G    epicentral distance:     18.75162     
  degrees
 Station #         810 : AES13.5G    epicentral distance:     19.06584     
  degrees
 Station #         811 : AES14.5G    epicentral distance:     17.83171     
  degrees
 Station #         812 : AES15.5G    epicentral distance:     18.02799     
  degrees
 Station #         813 : AES16.5G    epicentral distance:     16.78076     
  degrees
 Station #         814 : AES17.5G    epicentral distance:     17.87434     
  degrees
 Station #         815 : AES18.5G    epicentral distance:     17.58505     
  degrees
 Station #         816 : AES19.5G    epicentral distance:     17.79180     
  degrees
 Station #         817 : AES20.5G    epicentral distance:     14.99722     
  degrees
 Station #         818 : ASR01.5J    epicentral distance:     12.48281     
  degrees
 Station #         819 : ASR02.5J    epicentral distance:     13.91515     
  degrees
 Station #         820 : ASR03.5J    epicentral distance:     14.63932     
  degrees
 Station #         821 : ASR04.5J    epicentral distance:     14.32016     
  degrees
 Station #         822 : ASR05.5J    epicentral distance:     15.50853     
  degrees
 Station #         823 : ASR06.5J    epicentral distance:     14.74773     
  degrees
 Station #         824 : ASR07.5J    epicentral distance:     18.56768     
  degrees
 Station #         825 : ASR08.5J    epicentral distance:     16.14022     
  degrees
 Station #         826 : ASR09.5J    epicentral distance:     17.79552     
  degrees
 Station #         827 : ASR10.5J    epicentral distance:     19.95646     
  degrees
 Station #         828 : ASR12.5J    epicentral distance:     19.54144     
  degrees
 Station #         829 : ASR13.5J    epicentral distance:     14.71710     
  degrees
 Station #         830 : GSW01.5K    epicentral distance:     41.60114     
  degrees
 Station #         831 : GSW02.5K    epicentral distance:     41.60595     
  degrees
 Station #         832 : GSW03.5K    epicentral distance:     41.61351     
  degrees
 Station #         833 : GSW04.5K    epicentral distance:     41.62164     
  degrees
 Station #         834 : GSW05.5K    epicentral distance:     41.62782     
  degrees
 Station #         835 : GSW06.5K    epicentral distance:     41.61821     
  degrees
 Station #         836 : GSW07.5K    epicentral distance:     41.60114     
  degrees
 Station #         837 : 10101.6B    epicentral distance:     53.97736     
  degrees
 Station #         838 : 10102.6B    epicentral distance:     53.97535     
  degrees
 Station #         839 : 10103.6B    epicentral distance:     53.97401     
  degrees
 Station #         840 : 10104.6B    epicentral distance:     53.97348     
  degrees
 Station #         841 : 10105.6B    epicentral distance:     53.97195     
  degrees
 Station #         842 : 10106.6B    epicentral distance:     53.97066     
  degrees
 Station #         843 : 10107.6B    epicentral distance:     53.96933     
  degrees
 Station #         844 : 10108.6B    epicentral distance:     53.96880     
  degrees
 Station #         845 : 10109.6B    epicentral distance:     53.96803     
  degrees
 Station #         846 : 10110.6B    epicentral distance:     53.96678     
  degrees
 Station #         847 : 10111.6B    epicentral distance:     53.96415     
  degrees
 Station #         848 : 10112.6B    epicentral distance:     53.96358     
  degrees
 Station #         849 : 10113.6B    epicentral distance:     53.96275     
  degrees
 Station #         850 : 10114.6B    epicentral distance:     53.96214     
  degrees
 Station #         851 : 10115.6B    epicentral distance:     53.96143     
  degrees
 Station #         852 : 10116.6B    epicentral distance:     53.96120     
  degrees
 Station #         853 : 10117.6B    epicentral distance:     53.96091     
  degrees
 Station #         854 : 10118.6B    epicentral distance:     53.96076     
  degrees
 Station #         855 : 10119.6B    epicentral distance:     53.96056     
  degrees
 Station #         856 : 10120.6B    epicentral distance:     53.96173     
  degrees
 Station #         857 : 10121.6B    epicentral distance:     53.96166     
  degrees
 Station #         858 : 10122.6B    epicentral distance:     53.96132     
  degrees
 Station #         859 : 10123.6B    epicentral distance:     53.96027     
  degrees
 Station #         860 : 10124.6B    epicentral distance:     53.95950     
  degrees
 Station #         861 : 10125.6B    epicentral distance:     53.95829     
  degrees
 Station #         862 : 10126.6B    epicentral distance:     53.95699     
  degrees
 Station #         863 : 10127.6B    epicentral distance:     53.95646     
  degrees
 Station #         864 : 10128.6B    epicentral distance:     53.95584     
  degrees
[...]
 
 Time step #        19000
 Time:    51.00647      minutes
 Max norm displacement vector U in solid in all slices for forward prop. (m) = 
  3.0848281E-05
 Max non-dimensional potential Ufluid in fluid in all slices for forward prop. =
    4.4279571E-16
 Max of strain, eps_trace_over_3_crust_mantle =  5.5204230E-11
 Max of strain, epsilondev_crust_mantle  =  1.6591535E-08
 Elapsed time in seconds =    6043.83805738646     
 Elapsed time in hh:mm:ss =    1 h 40 m 43 s
 Mean elapsed time per time step in seconds =   0.318096739862445     
 Time steps done =        19000  out of        37300
 Time steps remaining =        18300
 Estimated remaining time in seconds =    5821.17033948274     
 Estimated remaining time in hh:mm:ss =    1 h 37 m 01 s
 Estimated total run time in seconds =    11865.0083968692     
 Estimated total run time in hh:mm:ss =    3 h 17 m 45 s
 We have done    50.93834     % of that
 The run will finish approximately on (in local time): Thu Aug 05, 2021 21:31
 
 Time step #        20000
 Time:    53.69814      minutes
 Max norm displacement vector U in solid in all slices for forward prop. (m) = 
  2.5084992E-05
 Max non-dimensional potential Ufluid in fluid in all slices for forward prop. =
    3.9198001E-16
 Max of strain, eps_trace_over_3_crust_mantle =  5.5349163E-11
 Max of strain, epsilondev_crust_mantle  =  1.3640009E-08
 Elapsed time in seconds =    6361.83070103987     
 Elapsed time in hh:mm:ss =    1 h 46 m 01 s
 Mean elapsed time per time step in seconds =   0.318091535051994     
 Time steps done =        20000  out of        37300
 Time steps remaining =        17300
 Estimated remaining time in seconds =    5502.98355639949     
 Estimated remaining time in hh:mm:ss =    1 h 31 m 42 s
 Estimated total run time in seconds =    11864.8142574394     
 Estimated total run time in hh:mm:ss =    3 h 17 m 44 s
 We have done    53.61930     % of that
 The run will finish approximately on (in local time): Thu Aug 05, 2021 21:32
 
 Time step #        21000
 Time:    56.38981      minutes
 Max norm displacement vector U in solid in all slices for forward prop. (m) = 
  1.9232657E-05
 Max non-dimensional potential Ufluid in fluid in all slices for forward prop. =
    3.9744631E-16
 Max of strain, eps_trace_over_3_crust_mantle =  3.4524800E-11
 Max of strain, epsilondev_crust_mantle  =  1.2348336E-08
 Elapsed time in seconds =    6680.08002363262     
 Elapsed time in hh:mm:ss =    1 h 51 m 20 s
 Mean elapsed time per time step in seconds =   0.318099048744410     
 Time steps done =        21000  out of        37300
 Time steps remaining =        16300
 Estimated remaining time in seconds =    5185.01449453389     
 Estimated remaining time in hh:mm:ss =    1 h 26 m 25 s
 Estimated total run time in seconds =    11865.0945181665     
 Estimated total run time in hh:mm:ss =    3 h 17 m 45 s
 We have done    56.30027     % of that
 The run will finish approximately on (in local time): Thu Aug 05, 2021 21:31
 
 Time step #        22000
 Time:    59.08147      minutes
 Max norm displacement vector U in solid in all slices for forward prop. (m) = 
  2.0309844E-05
 Max non-dimensional potential Ufluid in fluid in all slices for forward prop. =
    4.7258737E-16
 Max of strain, eps_trace_over_3_crust_mantle =  4.5013139E-11
 Max of strain, epsilondev_crust_mantle  =  1.2498987E-08
 Elapsed time in seconds =    6998.51440654905     
 Elapsed time in hh:mm:ss =    1 h 56 m 38 s
 Mean elapsed time per time step in seconds =   0.318114291206775     
 Time steps done =        22000  out of        37300
 Time steps remaining =        15300
 Estimated remaining time in seconds =    4867.14865546365     
 Estimated remaining time in hh:mm:ss =    1 h 21 m 07 s
 Estimated total run time in seconds =    11865.6630620127     
 Estimated total run time in hh:mm:ss =    3 h 17 m 45 s
 We have done    58.98123     % of that
 The run will finish approximately on (in local time): Thu Aug 05, 2021 21:31
 
 Time step #        23000
 Time:    61.77314      minutes
 Max norm displacement vector U in solid in all slices for forward prop. (m) = 
  2.0103485E-05
 Max non-dimensional potential Ufluid in fluid in all slices for forward prop. =
    2.5616696E-16
 Max of strain, eps_trace_over_3_crust_mantle =  3.7490382E-11
 Max of strain, epsilondev_crust_mantle  =  1.2049547E-08
 Elapsed time in seconds =    7316.22519707261     
 Elapsed time in hh:mm:ss =    2 h 01 m 56 s
 Mean elapsed time per time step in seconds =   0.318096747698809     
 Time steps done =        23000  out of        37300
 Time steps remaining =        14300
 Estimated remaining time in seconds =    4548.78349209297     
 Estimated remaining time in hh:mm:ss =    1 h 15 m 48 s
 Estimated total run time in seconds =    11865.0086891656     
 Estimated total run time in hh:mm:ss =    3 h 17 m 45 s
 We have done    61.66220     % of that
 The run will finish approximately on (in local time): Thu Aug 05, 2021 21:31
 
 Time step #        24000
 Time:    64.46481      minutes
 Max norm displacement vector U in solid in all slices for forward prop. (m) = 
  1.5261332E-05
 Max non-dimensional potential Ufluid in fluid in all slices for forward prop. =
    1.4555304E-16
 Max of strain, eps_trace_over_3_crust_mantle =  3.2592370E-11
 Max of strain, epsilondev_crust_mantle  =  9.9650208E-09
 Elapsed time in seconds =    7633.93720608763     
 Elapsed time in hh:mm:ss =    2 h 07 m 13 s
 Mean elapsed time per time step in seconds =   0.318080716920318     
 Time steps done =        24000  out of        37300
 Time steps remaining =        13300
 Estimated remaining time in seconds =    4230.47353504023     
 Estimated remaining time in hh:mm:ss =    1 h 10 m 30 s
 Estimated total run time in seconds =    11864.4107411279     
 Estimated total run time in hh:mm:ss =    3 h 17 m 44 s
 We have done    64.34316     % of that
 The run will finish approximately on (in local time): Thu Aug 05, 2021 21:32
 
 Time step #        25000
 Time:    67.15647      minutes
 Max norm displacement vector U in solid in all slices for forward prop. (m) = 
  1.5331989E-05
 Max non-dimensional potential Ufluid in fluid in all slices for forward prop. =
    2.3757162E-16
 Max of strain, eps_trace_over_3_crust_mantle =  2.5750891E-11
 Max of strain, epsilondev_crust_mantle  =  9.6721458E-09
 Elapsed time in seconds =    7951.15871723508     
 Elapsed time in hh:mm:ss =    2 h 12 m 31 s
 Mean elapsed time per time step in seconds =   0.318046348689403     
 Time steps done =        25000  out of        37300
 Time steps remaining =        12300
 Estimated remaining time in seconds =    3911.97008887966     
 Estimated remaining time in hh:mm:ss =    1 h 05 m 11 s
 Estimated total run time in seconds =    11863.1288061147     
 Estimated total run time in hh:mm:ss =    3 h 17 m 43 s
 We have done    67.02413     % of that
 The run will finish approximately on (in local time): Thu Aug 05, 2021 21:31
 
 Time step #        26000
 Time:    69.84814      minutes
 Max norm displacement vector U in solid in all slices for forward prop. (m) = 
  2.0262167E-05
 Max non-dimensional potential Ufluid in fluid in all slices for forward prop. =
    1.9927488E-16
 Max of strain, eps_trace_over_3_crust_mantle =  1.7299032E-11
 Max of strain, epsilondev_crust_mantle  =  1.0763674E-08
 Elapsed time in seconds =    8269.28936340450     
 Elapsed time in hh:mm:ss =    2 h 17 m 49 s
 Mean elapsed time per time step in seconds =   0.318049590900173     
 Time steps done =        26000  out of        37300
 Time steps remaining =        11300
 Estimated remaining time in seconds =    3593.96037717196     
 Estimated remaining time in hh:mm:ss =    0 h 59 m 53 s
 Estimated total run time in seconds =    11863.2497405765     
 Estimated total run time in hh:mm:ss =    3 h 17 m 43 s
 We have done    69.70509     % of that
 The run will finish approximately on (in local time): Thu Aug 05, 2021 21:31
 
 Time step #        27000
 Time:    72.53981      minutes
 Max norm displacement vector U in solid in all slices for forward prop. (m) = 
  1.5474330E-05
 Max non-dimensional potential Ufluid in fluid in all slices for forward prop. =
    1.7024591E-16
 Max of strain, eps_trace_over_3_crust_mantle =  1.5636013E-11
 Max of strain, epsilondev_crust_mantle  =  8.5449043E-09
 Elapsed time in seconds =    8587.03224645089     
 Elapsed time in hh:mm:ss =    2 h 23 m 07 s
 Mean elapsed time per time step in seconds =   0.318038231350033     
 Time steps done =        27000  out of        37300
 Time steps remaining =        10300
 Estimated remaining time in seconds =    3275.79378290534     
 Estimated remaining time in hh:mm:ss =    0 h 54 m 35 s
 Estimated total run time in seconds =    11862.8260293562     
 Estimated total run time in hh:mm:ss =    3 h 17 m 42 s
 We have done    72.38606     % of that
 The run will finish approximately on (in local time): Thu Aug 05, 2021 21:32
 
 Time step #        28000
 Time:    75.23148      minutes
 Max norm displacement vector U in solid in all slices for forward prop. (m) = 
  1.2386895E-05
 Max non-dimensional potential Ufluid in fluid in all slices for forward prop. =
    2.5983591E-16
 Max of strain, eps_trace_over_3_crust_mantle =  1.1075937E-11
 Max of strain, epsilondev_crust_mantle  =  5.7323408E-09
 Elapsed time in seconds =    8905.70224885177     
 Elapsed time in hh:mm:ss =    2 h 28 m 25 s
 Mean elapsed time per time step in seconds =   0.318060794601849     
 Time steps done =        28000  out of        37300
 Time steps remaining =         9300
 Estimated remaining time in seconds =    2957.96538979719     
 Estimated remaining time in hh:mm:ss =    0 h 49 m 17 s
 Estimated total run time in seconds =    11863.6676386490     
 Estimated total run time in hh:mm:ss =    3 h 17 m 43 s
 We have done    75.06702     % of that
 The run will finish approximately on (in local time): Thu Aug 05, 2021 21:31
 
 Time step #        29000
 Time:    77.92314      minutes
 Max norm displacement vector U in solid in all slices for forward prop. (m) = 
  1.6085296E-05
 Max non-dimensional potential Ufluid in fluid in all slices for forward prop. =
    3.5928057E-16
 Max of strain, eps_trace_over_3_crust_mantle =  1.4569868E-11
 Max of strain, epsilondev_crust_mantle  =  9.5643715E-09
 Elapsed time in seconds =    9223.73744684458     
 Elapsed time in hh:mm:ss =    2 h 33 m 43 s
 Mean elapsed time per time step in seconds =   0.318059911960158     
 Time steps done =        29000  out of        37300
 Time steps remaining =         8300
 Estimated remaining time in seconds =    2639.89726926931     
 Estimated remaining time in hh:mm:ss =    0 h 43 m 59 s
 Estimated total run time in seconds =    11863.6347161139     
 Estimated total run time in hh:mm:ss =    3 h 17 m 43 s
 We have done    77.74799     % of that
 The run will finish approximately on (in local time): Thu Aug 05, 2021 21:31
 
 Time step #        30000
 Time:    80.61481      minutes
 Max norm displacement vector U in solid in all slices for forward prop. (m) = 
  1.3399849E-05
 Max non-dimensional potential Ufluid in fluid in all slices for forward prop. =
    2.2516470E-16
 Max of strain, eps_trace_over_3_crust_mantle =  9.9085939E-12
 Max of strain, epsilondev_crust_mantle  =  7.3974400E-09
 Elapsed time in seconds =    9541.75907850475     
 Elapsed time in hh:mm:ss =    2 h 39 m 01 s
 Mean elapsed time per time step in seconds =   0.318058635950158     
 Time steps done =        30000  out of        37300
 Time steps remaining =         7300
 Estimated remaining time in seconds =    2321.82804243616     
 Estimated remaining time in hh:mm:ss =    0 h 38 m 41 s
 Estimated total run time in seconds =    11863.5871209409     
 Estimated total run time in hh:mm:ss =    3 h 17 m 43 s
 We have done    80.42896     % of that
 The run will finish approximately on (in local time): Thu Aug 05, 2021 21:31
 
 Time step #        31000
 Time:    83.30647      minutes
 Max norm displacement vector U in solid in all slices for forward prop. (m) = 
  1.0343820E-05
 Max non-dimensional potential Ufluid in fluid in all slices for forward prop. =
    2.1043693E-16
 Max of strain, eps_trace_over_3_crust_mantle =  8.9361851E-12
 Max of strain, epsilondev_crust_mantle  =  5.6179044E-09
 Elapsed time in seconds =    9859.64067671075     
 Elapsed time in hh:mm:ss =    2 h 44 m 19 s
 Mean elapsed time per time step in seconds =   0.318052925055186     
 Time steps done =        31000  out of        37300
 Time steps remaining =         6300
 Estimated remaining time in seconds =    2003.73342784767     
 Estimated remaining time in hh:mm:ss =    0 h 33 m 23 s
 Estimated total run time in seconds =    11863.3741045584     
 Estimated total run time in hh:mm:ss =    3 h 17 m 43 s
 We have done    83.10992     % of that
 The run will finish approximately on (in local time): Thu Aug 05, 2021 21:31
 
 Time step #        32000
 Time:    85.99814      minutes
 Max norm displacement vector U in solid in all slices for forward prop. (m) = 
  8.7780618E-06
 Max non-dimensional potential Ufluid in fluid in all slices for forward prop. =
    2.3516811E-16
 Max of strain, eps_trace_over_3_crust_mantle =  6.8469423E-12
 Max of strain, epsilondev_crust_mantle  =  4.1131205E-09
 Elapsed time in seconds =    10177.1849137472     
 Elapsed time in hh:mm:ss =    2 h 49 m 37 s
 Mean elapsed time per time step in seconds =   0.318037028554601     
 Time steps done =        32000  out of        37300
 Time steps remaining =         5300
 Estimated remaining time in seconds =    1685.59625133939     
 Estimated remaining time in hh:mm:ss =    0 h 28 m 05 s
 Estimated total run time in seconds =    11862.7811650866     
 Estimated total run time in hh:mm:ss =    3 h 17 m 42 s
 We have done    85.79089     % of that
 The run will finish approximately on (in local time): Thu Aug 05, 2021 21:31
 
 Time step #        33000
 Time:    88.68981      minutes
 Max norm displacement vector U in solid in all slices for forward prop. (m) = 
  9.2306163E-06
 Max non-dimensional potential Ufluid in fluid in all slices for forward prop. =
    1.7387248E-16
 Max of strain, eps_trace_over_3_crust_mantle =  6.9028247E-12
 Max of strain, epsilondev_crust_mantle  =  4.9645412E-09
 Elapsed time in seconds =    10495.2388514699     
 Elapsed time in hh:mm:ss =    2 h 54 m 55 s
 Mean elapsed time per time step in seconds =   0.318037540953635     
 Time steps done =        33000  out of        37300
 Time steps remaining =         4300
 Estimated remaining time in seconds =    1367.56142610063     
 Estimated remaining time in hh:mm:ss =    0 h 22 m 47 s
 Estimated total run time in seconds =    11862.8002775706     
 Estimated total run time in hh:mm:ss =    3 h 17 m 42 s
 We have done    88.47185     % of that
 The run will finish approximately on (in local time): Thu Aug 05, 2021 21:31
 
 Time step #        34000
 Time:    91.38148      minutes
 Max norm displacement vector U in solid in all slices for forward prop. (m) = 
  9.9502695E-06
 Max non-dimensional potential Ufluid in fluid in all slices for forward prop. =
    2.8436712E-16
 Max of strain, eps_trace_over_3_crust_mantle =  1.3367952E-11
 Max of strain, epsilondev_crust_mantle  =  5.4748401E-09
 Elapsed time in seconds =    10814.1692808131     
 Elapsed time in hh:mm:ss =    3 h 00 m 14 s
 Mean elapsed time per time step in seconds =   0.318063802376855     
 Time steps done =        34000  out of        37300
 Time steps remaining =         3300
 Estimated remaining time in seconds =    1049.61054784362     
 Estimated remaining time in hh:mm:ss =    0 h 17 m 29 s
 Estimated total run time in seconds =    11863.7798286567     
 Estimated total run time in hh:mm:ss =    3 h 17 m 43 s
 We have done    91.15282     % of that
 The run will finish approximately on (in local time): Thu Aug 05, 2021 21:31
 
 Time step #        35000
 Time:    94.07314      minutes
 Max norm displacement vector U in solid in all slices for forward prop. (m) = 
  1.0133264E-05
 Max non-dimensional potential Ufluid in fluid in all slices for forward prop. =
    1.8744062E-16
 Max of strain, eps_trace_over_3_crust_mantle =  4.5951064E-12
 Max of strain, epsilondev_crust_mantle  =  4.7090425E-09
 Elapsed time in seconds =    11133.4279816553     
 Elapsed time in hh:mm:ss =    3 h 05 m 33 s
 Mean elapsed time per time step in seconds =   0.318097942333010     
 Time steps done =        35000  out of        37300
 Time steps remaining =         2300
 Estimated remaining time in seconds =    731.625267365923     
 Estimated remaining time in hh:mm:ss =    0 h 12 m 11 s
 Estimated total run time in seconds =    11865.0532490213     
 Estimated total run time in hh:mm:ss =    3 h 17 m 45 s
 We have done    93.83378     % of that
 The run will finish approximately on (in local time): Thu Aug 05, 2021 21:31
 
 Time step #        36000
 Time:    96.76481      minutes
 Max norm displacement vector U in solid in all slices for forward prop. (m) = 
  1.0448215E-05
 Max non-dimensional potential Ufluid in fluid in all slices for forward prop. =
    4.2686935E-16
 Max of strain, eps_trace_over_3_crust_mantle =  2.4508082E-12
 Max of strain, epsilondev_crust_mantle  =  4.8358788E-09
 Elapsed time in seconds =    11452.2139682446     
 Elapsed time in hh:mm:ss =    3 h 10 m 52 s
 Mean elapsed time per time step in seconds =   0.318117054673462     
 Time steps done =        36000  out of        37300
 Time steps remaining =         1300
 Estimated remaining time in seconds =    413.552171075500     
 Estimated remaining time in hh:mm:ss =    0 h 06 m 53 s
 Estimated total run time in seconds =    11865.7661393201     
 Estimated total run time in hh:mm:ss =    3 h 17 m 45 s
 We have done    96.51475     % of that
 The run will finish approximately on (in local time): Thu Aug 05, 2021 21:31
 
 Time step #        37000
 Time:    99.45647      minutes
 Max norm displacement vector U in solid in all slices for forward prop. (m) = 
  8.9007217E-06
 Max non-dimensional potential Ufluid in fluid in all slices for forward prop. =
    3.9306352E-16
 Max of strain, eps_trace_over_3_crust_mantle =  2.9386736E-12
 Max of strain, epsilondev_crust_mantle  =  3.9638275E-09
 Elapsed time in seconds =    11770.8549799605     
 Elapsed time in hh:mm:ss =    3 h 16 m 10 s
 Mean elapsed time per time step in seconds =   0.318131215674608     
 Time steps done =        37000  out of        37300
 Time steps remaining =          300
 Estimated remaining time in seconds =    95.4393647023823     
 Estimated remaining time in hh:mm:ss =    0 h 01 m 35 s
 Estimated total run time in seconds =    11866.2943446629     
 Estimated total run time in hh:mm:ss =    3 h 17 m 46 s
 We have done    99.19571     % of that
 The run will finish approximately on (in local time): Thu Aug 05, 2021 21:32
 
 Time step #        37300
 Time:    100.2640      minutes
 Max norm displacement vector U in solid in all slices for forward prop. (m) = 
  1.2619300E-05
 Max non-dimensional potential Ufluid in fluid in all slices for forward prop. =
    3.3395428E-16
 Max of strain, eps_trace_over_3_crust_mantle =  4.5456520E-12
 Max of strain, epsilondev_crust_mantle  =  6.1646128E-09
 Elapsed time in seconds =    11866.2988330077     
 Elapsed time in hh:mm:ss =    3 h 17 m 46 s
 Mean elapsed time per time step in seconds =   0.318131336005568     
 Time steps done =        37300  out of        37300
 Time steps remaining =            0
 Estimated remaining time in seconds =   0.000000000000000E+000
 Estimated remaining time in hh:mm:ss =    0 h 00 m 00 s
 Estimated total run time in seconds =    11866.2988330077     
 Estimated total run time in hh:mm:ss =    3 h 17 m 46 s
 We have done    100.0000     % of that
 
 Time-Loop Complete. Timing info:
 Total elapsed time in seconds =    11866.7039285670     
 Total elapsed time in hh:mm:ss =    3 h 17 m 46 s
 
 End of the simulation
 
