 
 ****************************
 *** Specfem3D MPI Mesher ***
 ****************************
 
